version 2
run WithoutChannelSwitching-0-20180104-18:14:38-4603
attr configname WithoutChannelSwitching
attr datetime 20180104-18:14:38
attr experiment WithoutChannelSwitching
attr inifile omnetpp.ini
attr iterationvars ""
attr iterationvarsf ""
attr measurement ""
attr network Scenario1
attr processid 4603
attr repetition 0
attr replication #0
attr resultdir results
attr runnumber 0
attr seedset 0
param **.coreDebug false
param **.debug false
param *.**.nic.mac1609_4.bitrate 6Mbps
param *.**.nic.mac1609_4.txPower 20mW
param *.**.nic.mac1609_4.useServiceChannel false
param *.**.nic.phy80211p.analogueModels "xmldoc(\"config.xml\")"
param *.**.nic.phy80211p.antenna "xmldoc(\"antenna.xml\", \"/root/Antenna[@id='monopole']\")"
param *.**.nic.phy80211p.collectCollisionStatistics true
param *.**.nic.phy80211p.decider "xmldoc(\"config.xml\")"
param *.**.nic.phy80211p.sensitivity -89dBm
param *.**.nic.phy80211p.thermalNoise -110dBm
param *.**.nic.phy80211p.usePropagationDelay true
param *.**.nic.phy80211p.useThermalNoise true
param *.annotations.draw true
param *.connectionManager.drawMaxIntfDist false
param *.connectionManager.maxInterfDist 2600m
param *.connectionManager.sendDirect true
param *.manager.autoShutdown true
param *.manager.host "\"localhost\""
param *.manager.launchConfig "xmldoc(\"erlangen.launchd.xml\")"
param *.manager.port 9999
param *.manager.updateInterval 1s
param *.node[*].appl.Slotted1Enabled true
param *.node[*].appl.Slotted_Ns 5
param *.node[*].appl.Slotted_R 40
param *.node[*].appl.Slotted_tau 1.45
param *.node[*].appl.beaconInterval 0.1s
param *.node[*].appl.dataOnSch false
param *.node[*].appl.headerLength "80 bit"
param *.node[*].appl.sendBeacons true
param *.node[*].applType "\"myWaveAppLayer\""
param *.node[*].veinsmobility.x 0
param *.node[*].veinsmobility.y 0
param *.node[*].veinsmobility.z 1.895
param *.node[*].veinsmobilityType.debug true
param *.node[0].veinsmobility.accidentCount 1
param *.node[0].veinsmobility.accidentDuration 50s
param *.node[0].veinsmobility.accidentStart 20s
param *.obstacles.debug false
param *.playgroundSizeX 2500m
param *.playgroundSizeY 2500m
param *.playgroundSizeZ 50m
param *.rsu[*].appl.beaconInterval 0.1s
param *.rsu[*].appl.beaconUserPriority 7
param *.rsu[*].appl.dataOnSch false
param *.rsu[*].appl.dataUserPriority 5
param *.rsu[*].appl.headerLength "80 bit"
param *.rsu[*].appl.sendBeacons true
param *.rsu[*].applType "\"TraCIDemoRSU11p\""
param *.rsu[0].mobility.x 500
param *.rsu[0].mobility.y 500
param *.rsu[0].mobility.z 3

vector 4  Scenario1.node[0].veinsmobility  posx  ETV
vector 5  Scenario1.node[0].veinsmobility  posy  ETV
vector 6  Scenario1.node[0].veinsmobility  speed  ETV
vector 7  Scenario1.node[0].veinsmobility  acceleration  ETV
vector 8  Scenario1.node[0].veinsmobility  co2emission  ETV
vector 11  Scenario1.node[1].veinsmobility  posx  ETV
vector 12  Scenario1.node[1].veinsmobility  posy  ETV
vector 13  Scenario1.node[1].veinsmobility  speed  ETV
vector 14  Scenario1.node[1].veinsmobility  acceleration  ETV
vector 15  Scenario1.node[1].veinsmobility  co2emission  ETV
vector 18  Scenario1.node[2].veinsmobility  posx  ETV
vector 19  Scenario1.node[2].veinsmobility  posy  ETV
vector 20  Scenario1.node[2].veinsmobility  speed  ETV
vector 21  Scenario1.node[2].veinsmobility  acceleration  ETV
vector 22  Scenario1.node[2].veinsmobility  co2emission  ETV
vector 25  Scenario1.node[3].veinsmobility  posx  ETV
vector 26  Scenario1.node[3].veinsmobility  posy  ETV
vector 27  Scenario1.node[3].veinsmobility  speed  ETV
vector 28  Scenario1.node[3].veinsmobility  acceleration  ETV
vector 29  Scenario1.node[3].veinsmobility  co2emission  ETV
vector 32  Scenario1.node[4].veinsmobility  posx  ETV
vector 33  Scenario1.node[4].veinsmobility  posy  ETV
vector 34  Scenario1.node[4].veinsmobility  speed  ETV
vector 35  Scenario1.node[4].veinsmobility  acceleration  ETV
vector 36  Scenario1.node[4].veinsmobility  co2emission  ETV
vector 39  Scenario1.node[5].veinsmobility  posx  ETV
vector 40  Scenario1.node[5].veinsmobility  posy  ETV
vector 41  Scenario1.node[5].veinsmobility  speed  ETV
vector 42  Scenario1.node[5].veinsmobility  acceleration  ETV
vector 43  Scenario1.node[5].veinsmobility  co2emission  ETV
vector 46  Scenario1.node[6].veinsmobility  posx  ETV
vector 47  Scenario1.node[6].veinsmobility  posy  ETV
vector 48  Scenario1.node[6].veinsmobility  speed  ETV
vector 49  Scenario1.node[6].veinsmobility  acceleration  ETV
vector 50  Scenario1.node[6].veinsmobility  co2emission  ETV
vector 53  Scenario1.node[7].veinsmobility  posx  ETV
vector 54  Scenario1.node[7].veinsmobility  posy  ETV
vector 55  Scenario1.node[7].veinsmobility  speed  ETV
vector 56  Scenario1.node[7].veinsmobility  acceleration  ETV
vector 57  Scenario1.node[7].veinsmobility  co2emission  ETV
vector 60  Scenario1.node[8].veinsmobility  posx  ETV
vector 61  Scenario1.node[8].veinsmobility  posy  ETV
vector 62  Scenario1.node[8].veinsmobility  speed  ETV
vector 63  Scenario1.node[8].veinsmobility  acceleration  ETV
vector 64  Scenario1.node[8].veinsmobility  co2emission  ETV
vector 67  Scenario1.node[9].veinsmobility  posx  ETV
vector 68  Scenario1.node[9].veinsmobility  posy  ETV
vector 69  Scenario1.node[9].veinsmobility  speed  ETV
vector 70  Scenario1.node[9].veinsmobility  acceleration  ETV
vector 71  Scenario1.node[9].veinsmobility  co2emission  ETV
vector 74  Scenario1.node[10].veinsmobility  posx  ETV
vector 75  Scenario1.node[10].veinsmobility  posy  ETV
vector 76  Scenario1.node[10].veinsmobility  speed  ETV
vector 77  Scenario1.node[10].veinsmobility  acceleration  ETV
vector 78  Scenario1.node[10].veinsmobility  co2emission  ETV
vector 81  Scenario1.node[11].veinsmobility  posx  ETV
vector 82  Scenario1.node[11].veinsmobility  posy  ETV
vector 83  Scenario1.node[11].veinsmobility  speed  ETV
vector 84  Scenario1.node[11].veinsmobility  acceleration  ETV
vector 85  Scenario1.node[11].veinsmobility  co2emission  ETV
vector 88  Scenario1.node[12].veinsmobility  posx  ETV
vector 89  Scenario1.node[12].veinsmobility  posy  ETV
vector 90  Scenario1.node[12].veinsmobility  speed  ETV
vector 91  Scenario1.node[12].veinsmobility  acceleration  ETV
vector 92  Scenario1.node[12].veinsmobility  co2emission  ETV
vector 95  Scenario1.node[13].veinsmobility  posx  ETV
vector 96  Scenario1.node[13].veinsmobility  posy  ETV
vector 97  Scenario1.node[13].veinsmobility  speed  ETV
vector 98  Scenario1.node[13].veinsmobility  acceleration  ETV
vector 99  Scenario1.node[13].veinsmobility  co2emission  ETV
vector 102  Scenario1.node[14].veinsmobility  posx  ETV
vector 103  Scenario1.node[14].veinsmobility  posy  ETV
vector 104  Scenario1.node[14].veinsmobility  speed  ETV
vector 105  Scenario1.node[14].veinsmobility  acceleration  ETV
vector 106  Scenario1.node[14].veinsmobility  co2emission  ETV
vector 109  Scenario1.node[15].veinsmobility  posx  ETV
vector 110  Scenario1.node[15].veinsmobility  posy  ETV
vector 111  Scenario1.node[15].veinsmobility  speed  ETV
vector 112  Scenario1.node[15].veinsmobility  acceleration  ETV
vector 113  Scenario1.node[15].veinsmobility  co2emission  ETV
vector 116  Scenario1.node[16].veinsmobility  posx  ETV
vector 117  Scenario1.node[16].veinsmobility  posy  ETV
vector 118  Scenario1.node[16].veinsmobility  speed  ETV
vector 119  Scenario1.node[16].veinsmobility  acceleration  ETV
vector 120  Scenario1.node[16].veinsmobility  co2emission  ETV
vector 123  Scenario1.node[17].veinsmobility  posx  ETV
vector 124  Scenario1.node[17].veinsmobility  posy  ETV
vector 125  Scenario1.node[17].veinsmobility  speed  ETV
vector 126  Scenario1.node[17].veinsmobility  acceleration  ETV
vector 127  Scenario1.node[17].veinsmobility  co2emission  ETV
vector 130  Scenario1.node[18].veinsmobility  posx  ETV
vector 131  Scenario1.node[18].veinsmobility  posy  ETV
vector 132  Scenario1.node[18].veinsmobility  speed  ETV
vector 133  Scenario1.node[18].veinsmobility  acceleration  ETV
vector 134  Scenario1.node[18].veinsmobility  co2emission  ETV
vector 137  Scenario1.node[19].veinsmobility  posx  ETV
vector 138  Scenario1.node[19].veinsmobility  posy  ETV
vector 139  Scenario1.node[19].veinsmobility  speed  ETV
vector 140  Scenario1.node[19].veinsmobility  acceleration  ETV
vector 141  Scenario1.node[19].veinsmobility  co2emission  ETV
vector 144  Scenario1.node[20].veinsmobility  posx  ETV
vector 145  Scenario1.node[20].veinsmobility  posy  ETV
vector 146  Scenario1.node[20].veinsmobility  speed  ETV
vector 147  Scenario1.node[20].veinsmobility  acceleration  ETV
vector 148  Scenario1.node[20].veinsmobility  co2emission  ETV
vector 151  Scenario1.node[21].veinsmobility  posx  ETV
vector 152  Scenario1.node[21].veinsmobility  posy  ETV
vector 153  Scenario1.node[21].veinsmobility  speed  ETV
vector 154  Scenario1.node[21].veinsmobility  acceleration  ETV
vector 155  Scenario1.node[21].veinsmobility  co2emission  ETV
vector 158  Scenario1.node[22].veinsmobility  posx  ETV
vector 159  Scenario1.node[22].veinsmobility  posy  ETV
vector 160  Scenario1.node[22].veinsmobility  speed  ETV
vector 161  Scenario1.node[22].veinsmobility  acceleration  ETV
vector 162  Scenario1.node[22].veinsmobility  co2emission  ETV
vector 165  Scenario1.node[23].veinsmobility  posx  ETV
vector 166  Scenario1.node[23].veinsmobility  posy  ETV
vector 167  Scenario1.node[23].veinsmobility  speed  ETV
vector 168  Scenario1.node[23].veinsmobility  acceleration  ETV
vector 169  Scenario1.node[23].veinsmobility  co2emission  ETV
vector 172  Scenario1.node[24].veinsmobility  posx  ETV
vector 173  Scenario1.node[24].veinsmobility  posy  ETV
vector 174  Scenario1.node[24].veinsmobility  speed  ETV
vector 175  Scenario1.node[24].veinsmobility  acceleration  ETV
vector 176  Scenario1.node[24].veinsmobility  co2emission  ETV
vector 179  Scenario1.node[25].veinsmobility  posx  ETV
vector 180  Scenario1.node[25].veinsmobility  posy  ETV
vector 181  Scenario1.node[25].veinsmobility  speed  ETV
vector 182  Scenario1.node[25].veinsmobility  acceleration  ETV
vector 183  Scenario1.node[25].veinsmobility  co2emission  ETV
vector 186  Scenario1.node[26].veinsmobility  posx  ETV
vector 187  Scenario1.node[26].veinsmobility  posy  ETV
vector 188  Scenario1.node[26].veinsmobility  speed  ETV
vector 189  Scenario1.node[26].veinsmobility  acceleration  ETV
vector 190  Scenario1.node[26].veinsmobility  co2emission  ETV
vector 193  Scenario1.node[27].veinsmobility  posx  ETV
vector 194  Scenario1.node[27].veinsmobility  posy  ETV
vector 195  Scenario1.node[27].veinsmobility  speed  ETV
vector 196  Scenario1.node[27].veinsmobility  acceleration  ETV
vector 197  Scenario1.node[27].veinsmobility  co2emission  ETV
vector 200  Scenario1.node[28].veinsmobility  posx  ETV
vector 201  Scenario1.node[28].veinsmobility  posy  ETV
vector 202  Scenario1.node[28].veinsmobility  speed  ETV
vector 203  Scenario1.node[28].veinsmobility  acceleration  ETV
vector 204  Scenario1.node[28].veinsmobility  co2emission  ETV
vector 207  Scenario1.node[29].veinsmobility  posx  ETV
vector 208  Scenario1.node[29].veinsmobility  posy  ETV
vector 209  Scenario1.node[29].veinsmobility  speed  ETV
vector 210  Scenario1.node[29].veinsmobility  acceleration  ETV
vector 211  Scenario1.node[29].veinsmobility  co2emission  ETV
vector 214  Scenario1.node[30].veinsmobility  posx  ETV
vector 215  Scenario1.node[30].veinsmobility  posy  ETV
vector 216  Scenario1.node[30].veinsmobility  speed  ETV
vector 217  Scenario1.node[30].veinsmobility  acceleration  ETV
vector 218  Scenario1.node[30].veinsmobility  co2emission  ETV
vector 221  Scenario1.node[31].veinsmobility  posx  ETV
vector 222  Scenario1.node[31].veinsmobility  posy  ETV
vector 223  Scenario1.node[31].veinsmobility  speed  ETV
vector 224  Scenario1.node[31].veinsmobility  acceleration  ETV
vector 225  Scenario1.node[31].veinsmobility  co2emission  ETV
vector 228  Scenario1.node[32].veinsmobility  posx  ETV
vector 229  Scenario1.node[32].veinsmobility  posy  ETV
vector 230  Scenario1.node[32].veinsmobility  speed  ETV
vector 231  Scenario1.node[32].veinsmobility  acceleration  ETV
vector 232  Scenario1.node[32].veinsmobility  co2emission  ETV
vector 235  Scenario1.node[33].veinsmobility  posx  ETV
vector 236  Scenario1.node[33].veinsmobility  posy  ETV
8	534	3	3.9690439751639
8	755	4	4.8734986088453
8	1226	5	6.2068327255978
8	1697	6	7.2118621755177
8	2168	7	8.2287933875323
8	3009	8	3.0242689444712
8	3850	9	2.410214010884
8	4691	10	1.8042481683123
8	6022	11	2.2766031729043
8	7353	12	1.9910577970912
8	8684	13	1.9816353748441
8	10625	14	2.0006543718409
8	12566	15	2.0156733927738
8	14507	16	1.7275773004983
8	17178	17	2.3491339177603
8	19849	18	0.973
8	22520	19	0.973
8	26041	20	0.973
8	29563	21	0.973
8	33084	22	0.973
8	37575	23	0.973
8	42066	24	0.973
8	46557	25	0.973
8	52138	26	0.973
8	57719	27	0.973
8	63300	28	0.973
8	70091	29	0.973
8	76882	30	0.973
8	83673	31	0.973
8	91864	32	0.973
8	99985	33	0.973
8	108816	34	0.973
8	118387	35	0.973
8	127958	36	0.973
8	137529	37	0.973
8	148670	38	0.973
8	159811	39	0.973
8	170952	40	0.973
8	183783	41	0.973
8	196614	42	0.973
8	209445	43	0.973
8	224086	44	0.973
8	238727	45	0.973
8	253368	46	0.973
8	269939	47	0.973
8	286510	48	0.973
8	303081	49	0.973
8	321702	50	0.973
8	340323	51	0.973
8	358944	52	0.973
8	379735	53	0.973
8	400366	54	0.973
8	420837	55	0.973
8	443278	56	0.973
8	465479	57	0.973
8	487520	58	0.973
8	511491	59	0.973
8	535142	60	0.973
8	558473	61	0.973
8	583976	62	0.973
8	608957	63	0.973
8	634645	64	0.973
8	661236	65	0.973
8	687747	66	0.973
8	714018	67	0.973
8	742579	68	0.973
8	771140	69	0.973
8	799461	70	0.973
8	830273	71	2.4003017088379
8	861324	72	4.171885227901
8	892215	73	4.8224075877482
8	925796	74	5.2609287306302
8	959697	75	6.7345700286982
8	993598	76	7.9560188404105
8	1030309	77	6.6152388109409
8	1067020	78	2.3367211338842
8	1103731	79	1.7425621189084
8	1143372	80	2.0704152136274
8	1183013	81	1.906274123249
8	1222654	82	2.0719508996736
8	1264699	83	2.1603216990161
8	1307150	84	2.251023951502
8	1348891	85	1.7026200228305
8	1393806	86	1.9720816895443
8	1438199	87	2.3610458155822
8	1482250	88	1.8500994795569
8	1529186	89	1.9581118312541
8	1575681	90	2.2344918569612
8	1621960	91	1.8581058391795
8	1670681	92	2.2352550554627
8	1718362	93	2.0329154696047
8	1765723	94	1.8672564441157
8	1815334	95	1.9858095230266
8	1864545	96	2.1762768438787
8	1913190	97	1.9481581535003
8	1964767	98	2.0008678347165
8	2015621	99	2.0857855456928
8	2066160	100	2.1711346415418
7	534	3	1.8350836683181
7	755	4	1.8271086537745
7	1226	5	1.9700068054721
7	1697	6	1.9440954117314
7	2168	7	1.9251633647294
7	3009	8	0.3043542271355
7	3850	9	0.11476667602547
7	4691	10	-0.064753184660804
7	6022	11	0.074470334358047
7	7353	12	-0.010534379172604
7	8684	13	-0.012970053050667
7	10625	14	-0.0070667944545857
7	12566	15	-0.0024941215664143
7	14507	16	-0.086695689375047
7	17178	17	0.096991665165405
7	19849	18	-1.1627897896615
7	22520	19	-3.2370594858455
7	26041	20	-2.9603488400973
7	29563	21	-4.5
7	33084	22	-2.0045373958602
7	37575	23	0
7	42066	24	0
7	46557	25	0
7	52138	26	0
7	57719	27	0
7	63300	28	0
7	70091	29	0
7	76882	30	0
7	83673	31	0
7	91864	32	0
7	99985	33	0
7	108816	34	0
7	118387	35	0
7	127958	36	0
7	137529	37	0
7	148670	38	0
7	159811	39	0
7	170952	40	0
7	183783	41	0
7	196614	42	0
7	209445	43	0
7	224086	44	0
7	238727	45	0
7	253368	46	0
7	269939	47	0
7	286510	48	0
7	303081	49	0
7	321702	50	0
7	340323	51	0
7	358944	52	0
7	379735	53	0
7	400366	54	0
7	420837	55	0
7	443278	56	0
7	465479	57	0
7	487520	58	0
7	511491	59	0
7	535142	60	0
7	558473	61	0
7	583976	62	0
7	608957	63	0
7	634645	64	0
7	661236	65	0
7	687747	66	0
7	714018	67	0
7	742579	68	0
7	771140	69	0
7	799461	70	0
7	830273	71	2.2150411513409
7	861324	72	2.4910309293785
7	892215	73	2.0592293085298
7	925796	74	1.7859788631089
7	959697	75	1.9746089282003
7	993598	76	2.006327327895
7	1030309	77	1.369018521137
7	1067020	78	0.088656142954715
7	1103731	79	-0.08550246386323
7	1143372	80	0.011962231742217
7	1183013	81	-0.035980199445039
7	1222654	82	0.01313526209211
7	1264699	83	0.03825825164793
7	1307150	84	0.063066084329039
7	1348891	85	-0.097262581144459
7	1393806	86	-0.016333017088472
7	1438199	87	0.096330164920072
7	1482250	88	-0.053921740120277
7	1529186	89	-0.021123701455071
7	1575681	90	0.059306249909568
7	1621960	91	-0.051188559748697
7	1670681	92	0.059253651266918
7	1718362	93	-0.00082093917997561
7	1765723	94	-0.048720256499946
7	1815334	95	-0.012999280754011
7	1864545	96	0.042408297613727
7	1913190	97	-0.024738717859144
7	1964767	98	-0.0087713597761478
7	2015621	99	0.016042116552127
7	2066160	100	0.040124440768267
6	313	2	3.9572089270348
6	534	3	5.7922925953529
6	755	4	7.6194012491274
6	1226	5	9.5894080545995
6	1697	6	11.533503466331
6	2168	7	13.45866683106
6	3009	8	13.763021058196
6	3850	9	13.877787734221
6	4691	10	13.81303454956
6	6022	11	13.887504883918
6	7353	12	13.876970504746
6	8684	13	13.864000451695
6	10625	14	13.856933657241
6	12566	15	13.854439535674
6	14507	16	13.767743846299
6	17178	17	13.864735511465
6	19849	18	12.701945721803
6	22520	19	9.4648862359575
6	26041	20	6.5045373958602
6	29563	21	2.0045373958602
6	33084	22	0
6	37575	23	0
6	42066	24	0
6	46557	25	0
6	52138	26	0
6	57719	27	0
6	63300	28	0
6	70091	29	0
6	76882	30	0
6	83673	31	0
6	91864	32	0
6	99985	33	0
6	108816	34	0
6	118387	35	0
6	127958	36	0
6	137529	37	0
6	148670	38	0
6	159811	39	0
6	170952	40	0
6	183783	41	0
6	196614	42	0
6	209445	43	0
6	224086	44	0
6	238727	45	0
6	253368	46	0
6	269939	47	0
6	286510	48	0
6	303081	49	0
6	321702	50	0
6	340323	51	0
6	358944	52	0
6	379735	53	0
6	400366	54	0
6	420837	55	0
6	443278	56	0
6	465479	57	0
6	487520	58	0
6	511491	59	0
6	535142	60	0
6	558473	61	0
6	583976	62	0
6	608957	63	0
6	634645	64	0
6	661236	65	0
6	687747	66	0
6	714018	67	0
6	742579	68	0
6	771140	69	0
6	799461	70	0
6	830273	71	2.2150411513409
6	861324	72	4.7060720807194
6	892215	73	6.7653013892491
6	925796	74	8.551280252358
6	959697	75	10.525889180558
6	993598	76	12.532216508453
6	1030309	77	13.90123502959
6	1067020	78	13.989891172545
6	1103731	79	13.904388708682
6	1143372	80	13.916350940424
6	1183013	81	13.880370740979
6	1222654	82	13.893506003071
6	1264699	83	13.931764254719
6	1307150	84	13.994830339048
6	1348891	85	13.897567757904
6	1393806	86	13.881234740815
6	1438199	87	13.977564905735
6	1482250	88	13.923643165615
6	1529186	89	13.90251946416
6	1575681	90	13.961825714069
6	1621960	91	13.910637154321
6	1670681	92	13.969890805588
6	1718362	93	13.969069866408
6	1765723	94	13.920349609908
6	1815334	95	13.907350329154
6	1864545	96	13.949758626767
6	1913190	97	13.925019908908
6	1964767	98	13.916248549132
6	2015621	99	13.932290665684
6	2066160	100	13.972415106453
5	92	1	1578.4416120471
5	313	2	1578.4416120471
5	534	3	1579.4966245294
5	755	4	1581.2776015159
5	1226	5	1586.1653365986
5	1697	6	1592.3755327258
5	2168	7	1599.9554281235
5	3009	8	1608.9150987137
5	3850	9	1618.7330828821
5	4691	10	1628.5774648814
5	6022	11	1638.4196562562
5	7353	12	1648.4360301802
5	8684	13	1660.0725704357
5	10625	14	1672.8800310632
5	12566	15	1681.6922949329
5	14507	16	1690.9525972893
5	17178	17	1695.3639500989
5	19849	18	1697.2011958091
5	22520	19	1698.541036698
5	26041	20	1699.5699112993
5	29563	21	1700.3040461661
5	33084	22	1700.68334084
5	37575	23	1700.7164566861
5	42066	24	1700.7164566861
5	46557	25	1700.7164566861
5	52138	26	1700.7164566861
5	57719	27	1700.7164566861
5	63300	28	1700.7164566861
5	70091	29	1700.7164566861
5	76882	30	1700.7164566861
5	83673	31	1700.7164566861
5	91864	32	1700.7164566861
5	99985	33	1700.7164566861
5	108816	34	1700.7164566861
5	118387	35	1700.7164566861
5	127958	36	1700.7164566861
5	137529	37	1700.7164566861
5	148670	38	1700.7164566861
5	159811	39	1700.7164566861
5	170952	40	1700.7164566861
5	183783	41	1700.7164566861
5	196614	42	1700.7164566861
5	209445	43	1700.7164566861
5	224086	44	1700.7164566861
5	238727	45	1700.7164566861
5	253368	46	1700.7164566861
5	269939	47	1700.7164566861
5	286510	48	1700.7164566861
5	303081	49	1700.7164566861
5	321702	50	1700.7164566861
5	340323	51	1700.7164566861
5	358944	52	1700.7164566861
5	379735	53	1700.7164566861
5	400366	54	1700.7164566861
5	420837	55	1700.7164566861
5	443278	56	1700.7164566861
5	465479	57	1700.7164566861
5	487520	58	1700.7164566861
5	511491	59	1700.7164566861
5	535142	60	1700.7164566861
5	558473	61	1700.7164566861
5	583976	62	1700.7164566861
5	608957	63	1700.7164566861
5	634645	64	1700.7164566861
5	661236	65	1700.7164566861
5	687747	66	1700.7164566861
5	714018	67	1700.7164566861
5	742579	68	1700.7164566861
5	771140	69	1700.7164566861
5	799461	70	1700.7164566861
5	830273	71	1700.7164566861
5	861324	72	1700.8384209238
5	892215	73	1701.0551980557
5	925796	74	1703.2720368924
5	959697	75	1710.9433717942
5	993598	76	1720.5132375862
5	1030309	77	1731.9910808224
5	1067020	78	1745.3335558604
5	1103731	79	1759.1724208463
5	1143372	80	1773.0747680729
5	1183013	81	1786.9615152786
5	1222654	82	1800.8532782998
5	1264699	83	1814.7363612484
5	1307150	84	1828.628288798
5	1348891	85	1842.5359727601
5	1393806	86	1856.4240452256
5	1438199	87	1870.3215016099
5	1482250	88	1884.2197932377
5	1529186	89	1898.1214390444
5	1575681	90	1912.0027474212
5	1621960	91	1925.9071958447
5	1670681	92	1939.7938308381
5	1718362	93	1953.6899871314
5	1765723	94	1967.5755527588
5	1815334	95	1981.4675676189
5	1864545	96	1995.354936731
5	1913190	97	2009.2558782352
5	1964767	98	2023.1273914818
5	2015621	99	2037.0211815964
5	2066160	100	2050.9121147422
4	92	1	2414.9014220152
4	313	2	2414.9014220152
4	534	3	2412.0282535021
4	755	4	2407.434272861
4	1226	5	2402.6086066293
4	1697	6	2396.4772731521
4	2168	7	2388.9936340754
4	3009	8	2380.1477414317
4	3850	9	2370.4544348472
4	4691	10	2360.735065655
4	6022	11	2351.0178592684
4	7353	12	2341.5298487653
4	8684	13	2334.7235384902
4	10625	14	2336.8243788907
4	12566	15	2347.473535693
4	14507	16	2357.7419379568
4	17178	17	2370.3022435491
4	19849	18	2383.9995112187
4	22520	19	2397.5196581341
4	26041	20	2408.4006939746
4	29563	21	2416.1646603449
4	33084	22	2420.1759547628
4	37575	23	2420.5261769446
4	42066	24	2420.5261769446
4	46557	25	2420.5261769446
4	52138	26	2420.5261769446
4	57719	27	2420.5261769446
4	63300	28	2420.5261769446
4	70091	29	2420.5261769446
4	76882	30	2420.5261769446
4	83673	31	2420.5261769446
4	91864	32	2420.5261769446
4	99985	33	2420.5261769446
4	108816	34	2420.5261769446
4	118387	35	2420.5261769446
4	127958	36	2420.5261769446
4	137529	37	2420.5261769446
4	148670	38	2420.5261769446
4	159811	39	2420.5261769446
4	170952	40	2420.5261769446
4	183783	41	2420.5261769446
4	196614	42	2420.5261769446
4	209445	43	2420.5261769446
4	224086	44	2420.5261769446
4	238727	45	2420.5261769446
4	253368	46	2420.5261769446
4	269939	47	2420.5261769446
4	286510	48	2420.5261769446
4	303081	49	2420.5261769446
4	321702	50	2420.5261769446
4	340323	51	2420.5261769446
4	358944	52	2420.5261769446
4	379735	53	2420.5261769446
4	400366	54	2420.5261769446
4	420837	55	2420.5261769446
4	443278	56	2420.5261769446
4	465479	57	2420.5261769446
4	487520	58	2420.5261769446
4	511491	59	2420.5261769446
4	535142	60	2420.5261769446
4	558473	61	2420.5261769446
4	583976	62	2420.5261769446
4	608957	63	2420.5261769446
4	634645	64	2420.5261769446
4	661236	65	2420.5261769446
4	687747	66	2420.5261769446
4	714018	67	2420.5261769446
4	742579	68	2420.5261769446
4	771140	69	2420.5261769446
4	799461	70	2420.5261769446
4	830273	71	2420.5261769446
4	861324	72	2421.8160301839
4	892215	73	2425.3482279594
4	925796	74	2430.3717501032
4	959697	75	2431.6899457459
4	993598	76	2433.1442202642
4	1030309	77	2434.8884385538
4	1067020	78	2436.9160136401
4	1103731	79	2438.5068347809
4	1143372	80	2439.3623306591
4	1183013	81	2440.37213109
4	1222654	82	2441.3822962552
4	1264699	83	2442.3918302329
4	1307150	84	2443.4020073621
4	1348891	85	2444.4133302479
4	1393806	86	2445.4232270475
4	1438199	87	2446.4338062161
4	1482250	88	2447.444446121
4	1529186	89	2448.4553299311
4	1575681	90	2449.4647348677
4	1621960	91	2450.4758224753
4	1670681	92	2449.7503326134
4	1718362	93	2448.6369744559
4	1765723	94	2447.5244648212
4	1815334	95	2446.4114384749
4	1864545	96	2445.2987843453
4	1913190	97	2444.1850427974
4	1964767	98	2443.0736590375
4	2015621	99	2441.9604904581
4	2066160	100	2440.8475507784
15	1697	6	4.2301091069722
15	2168	7	5.4083752898229
15	3009	8	6.4569285084612
15	3850	9	6.9981297601067
15	4691	10	8.3312879690391
15	6022	11	2.4141445356829
15	7353	12	2.1874061765078
15	8684	13	1.8382242624125
15	10625	14	2.0343893016141
15	12566	15	1.9593955015171
15	14507	16	2.2876002045415
15	17178	17	1.6630794257514
15	19849	18	2.3307419132725
15	22520	19	2.0570318190542
15	26041	20	0.973
15	29563	21	0.973
15	33084	22	0.973
15	37575	23	0.973
15	42066	24	0.973
15	46557	25	0.973
15	52138	26	0.973
15	57719	27	0.973
15	63300	28	1.11
15	70091	29	1.11
15	76882	30	1.11
15	83673	31	1.11
15	91864	32	1.11
15	99985	33	1.11
15	108816	34	1.11
15	118387	35	1.11
15	127958	36	1.11
15	137529	37	1.11
15	148670	38	1.11
15	159811	39	1.11
15	170952	40	1.11
15	183783	41	1.11
15	196614	42	1.11
15	209445	43	1.11
15	224086	44	1.11
15	238727	45	1.11
15	253368	46	1.11
15	269939	47	1.11
15	286510	48	1.11
15	303081	49	1.11
15	321702	50	1.11
15	340323	51	1.11
15	358944	52	1.11
15	379735	53	1.11
15	400366	54	1.11
15	420837	55	1.11
15	443278	56	1.11
15	465479	57	1.11
15	487520	58	1.11
15	511491	59	1.11
15	535142	60	1.11
15	558473	61	1.11
15	583976	62	1.11
15	608957	63	1.11
15	634645	64	1.11
15	661236	65	1.11
15	687747	66	1.11
15	714018	67	1.11
15	742579	68	1.11
15	771140	69	1.11
15	799461	70	1.11
15	830273	71	1.3725809501596
15	861324	72	2.7635624608632
15	892215	73	1.8730984172222
15	925796	74	4.4743901418143
15	959697	75	5.6285456445888
15	993598	76	6.4390901932349
15	1030309	77	7.4370835944917
15	1067020	78	8.4115040481366
15	1103731	79	2.3177215598846
15	1143372	80	2.2037319243621
15	1183013	81	1.9485735486264
15	1222654	82	1.8736993388498
15	1264699	83	2.3936653292383
15	1307150	84	1.7963938987125
15	1348891	85	2.1901717016339
15	1393806	86	1.7912970927821
15	1438199	87	1.9582871956734
15	1482250	88	2.0753945206698
15	1529186	89	2.3191650869595
15	1575681	90	2.0944901975513
15	1621960	91	1.6657906574435
15	1670681	92	2.4078963189886
15	1718362	93	1.7943370008709
15	1765723	94	2.2263516706332
15	1815334	95	1.8024176095077
15	1864545	96	1.8818098452399
15	1913190	97	2.36962706757
15	1964767	98	1.733867840793
15	2015621	99	2.4319880551738
15	2066160	100	1.8312356772953
14	1697	6	1.9474421001598
14	2168	7	2.0059184591635
14	3009	8	1.9846240851143
14	3850	9	1.8173657322512
14	4691	10	1.9131545290095
14	6022	11	0.11784023580519
14	7353	12	0.048173203465995
14	8684	13	-0.054790777366142
14	10625	14	0.0039751141518352
14	12566	15	-0.018007996121888
14	14507	16	0.077808754814324
14	17178	17	-0.10640377648408
14	19849	18	0.091259598622564
14	22520	19	0.0090987256960933
14	26041	20	-0.89915141704996
14	29563	21	-3.1741604100787
14	33084	22	-3.0224981968785
14	37575	23	-2.5368173927511
14	42066	24	-1.9220495613516
14	46557	25	-1.273368100215
14	52138	26	-0.62391566133619
14	57719	27	-0.42327022997533
14	63300	28	-0.0047646926495915
14	70091	29	-3.7684281843644e-16
14	76882	30	1.3499119986738e-16
14	83673	31	9.6459917241474e-17
14	91864	32	-2.3012406875625e-16
14	99985	33	1.4667449605945e-16
14	108816	34	2.4882870193894e-16
14	118387	35	3.0825763186825e-17
14	127958	36	-3.861315600709e-16
14	137529	37	-5.3264305720989e-17
14	148670	38	3.1491775170997e-16
14	159811	39	-8.0011709380571e-17
14	170952	40	3.222465159781e-16
14	183783	41	-3.9467834276381e-16
14	196614	42	1.4528777671126e-16
14	209445	43	-2.8833246658774e-16
14	224086	44	3.357398209405e-16
14	238727	45	-2.9029515325199e-16
14	253368	46	2.5967465477302e-16
14	269939	47	1.3815948455477e-16
14	286510	48	8.1072677446325e-17
14	303081	49	-3.4973616113269e-16
14	321702	50	2.8256070067935e-16
14	340323	51	-1.5342567238385e-16
14	358944	52	-2.0240618584576e-17
14	379735	53	-2.6578647491708e-16
14	400366	54	1.2139569577124e-16
14	420837	55	3.997280727378e-16
14	443278	56	-3.0629885898211e-16
14	465479	57	8.1155491932586e-18
14	487520	58	3.4165669939507e-17
14	511491	59	5.9411401370725e-17
14	535142	60	1.8279763751725e-16
14	558473	61	1.2377263726032e-17
14	583976	62	-4.7071959773745e-16
14	608957	63	2.7557007053532e-16
14	634645	64	1.7856787500123e-16
14	661236	65	-3.740656763832e-16
14	687747	66	1.3103051404231e-16
14	714018	67	1.1801582562933e-16
14	742579	68	-1.1279933746487e-16
14	771140	69	-2.5011803609052e-16
14	799461	70	5.4642759242088e-16
14	830273	71	0.94836213154181
14	861324	72	2.0697228215588
14	892215	73	0.65638406552953
14	925796	74	2.1737832053674
14	959697	75	2.1265156609705
14	993598	76	1.9825486173131
14	1030309	77	1.950254096
14	1067020	78	1.9179291490978
14	1103731	79	0.085882115538963
14	1143372	80	0.050173747171648
14	1183013	81	-0.024946498547216
14	1222654	82	-0.045995441472623
14	1264699	83	0.10531662611989
14	1307150	84	-0.069984905058519
14	1348891	85	0.04580039836932
14	1393806	86	-0.070870045719202
14	1438199	87	-0.020433553773911
14	1482250	88	0.014130231947638
14	1529186	89	0.083865678878501
14	1575681	90	0.016646788294894
14	1621960	91	-0.10802128388081
14	1670681	92	0.10951106298948
14	1718362	93	-0.070598556555341
14	1765723	94	0.056186630502342
14	1815334	95	-0.067892377434763
14	1864545	96	-0.043044135996606
14	1913190	97	0.099147125950548
14	1964767	98	-0.087577467020601
14	2015621	99	0.1165460521495
14	2066160	100	-0.059954257141799
13	1226	5	4.0425376740037
13	1697	6	5.9899797741635
13	2168	7	7.995898233327
13	3009	8	9.9805223184414
13	3850	9	11.797888050693
13	4691	10	13.711042579702
13	6022	11	13.828882815507
13	7353	12	13.877056018973
13	8684	13	13.822265241607
13	10625	14	13.826240355759
13	12566	15	13.808232359637
13	14507	16	13.886041114451
13	17178	17	13.779637337967
13	19849	18	13.87089693659
13	22520	19	13.879995662286
13	26041	20	12.980844245236
13	29563	21	9.8066838351573
13	33084	22	6.7841856382788
13	37575	23	4.2473682455277
13	42066	24	2.3253186841761
13	46557	25	1.0519505839611
13	52138	26	0.42803492262494
13	57719	27	0.0047646926496035
13	63300	28	1.2007599178709e-14
13	70091	29	1.1630756360272e-14
13	76882	30	1.176574756014e-14
13	83673	31	1.1862207477381e-14
13	91864	32	1.1632083408625e-14
13	99985	33	1.1778757904684e-14
13	108816	34	1.2027586606623e-14
13	118387	35	1.205841236981e-14
13	127958	36	1.1672280809739e-14
13	137529	37	1.1619016504018e-14
13	148670	38	1.1933934255728e-14
13	159811	39	1.1853922546348e-14
13	170952	40	1.2176169062326e-14
13	183783	41	1.1781490719562e-14
13	196614	42	1.1926778496273e-14
13	209445	43	1.1638446029685e-14
13	224086	44	1.1974185850626e-14
13	238727	45	1.1683890697374e-14
13	253368	46	1.1943565352147e-14
13	269939	47	1.2081724836702e-14
13	286510	48	1.2162797514148e-14
13	303081	49	1.1813061353015e-14
13	321702	50	1.2095622053695e-14
13	340323	51	1.1942196381311e-14
13	358944	52	1.1921955762726e-14
13	379735	53	1.1656169287809e-14
13	400366	54	1.177756498358e-14
13	420837	55	1.2177293056318e-14
13	443278	56	1.1870994197336e-14
13	465479	57	1.1879109746529e-14
13	487520	58	1.1913275416469e-14
13	511491	59	1.197268681784e-14
13	535142	60	1.2155484455357e-14
13	558473	61	1.2167861719083e-14
13	583976	62	1.1697142121346e-14
13	608957	63	1.1972712191881e-14
13	634645	64	1.2151280066882e-14
13	661236	65	1.1777214390499e-14
13	687747	66	1.1908244904541e-14
13	714018	67	1.2026260730171e-14
13	742579	68	1.1913461392706e-14
13	771140	69	1.1663343356615e-14
13	799461	70	1.2209770949036e-14
13	830273	71	0.94836213154182
13	861324	72	3.0180849531007
13	892215	73	3.6744690186302
13	925796	74	5.8482522239976
13	959697	75	7.9747678849681
13	993598	76	9.9573165022812
13	1030309	77	11.907570598281
13	1067020	78	13.825499747379
13	1103731	79	13.911381862918
13	1143372	80	13.96155561009
13	1183013	81	13.936609111542
13	1222654	82	13.89061367007
13	1264699	83	13.99593029619
13	1307150	84	13.925945391131
13	1348891	85	13.9717457895
13	1393806	86	13.900875743781
13	1438199	87	13.880442190007
13	1482250	88	13.894572421955
13	1529186	89	13.978438100833
13	1575681	90	13.995084889128
13	1621960	91	13.887063605248
13	1670681	92	13.996574668237
13	1718362	93	13.925976111682
13	1765723	94	13.982162742184
13	1815334	95	13.914270364749
13	1864545	96	13.871226228753
13	1913190	97	13.970373354703
13	1964767	98	13.882795887683
13	2015621	99	13.999341939832
13	2066160	100	13.93938768269
12	755	4	1578.4472822268
12	1226	5	1578.4472822268
12	1697	6	1579.5086799795
12	2168	7	1581.463551742
12	3009	8	1586.5215602648
12	3850	9	1592.9907937236
12	4691	10	1600.8370654397
12	6022	11	1609.9987445669
12	7353	12	1619.8356540762
12	8684	13	1629.6860002102
12	10625	14	1639.5136572961
12	12566	15	1649.6652132459
12	14507	16	1661.608180549
12	17178	17	1673.8534141136
12	19849	18	1682.7311922461
12	22520	19	1692.0008722087
12	26041	20	1695.5930600381
12	29563	21	1697.3638825528
12	33084	22	1698.4499469046
12	37575	23	1699.2104528537
12	42066	24	1699.7103763269
12	46557	25	1700.0009154202
12	52138	26	1700.1459521251
12	57719	27	1700.2086647702
12	63300	28	1700.2457181262
12	70091	29	1700.245719607
12	76882	30	1700.245719607
12	83673	31	1700.245719607
12	91864	32	1700.245719607
12	99985	33	1700.245719607
12	108816	34	1700.245719607
12	118387	35	1700.245719607
12	127958	36	1700.245719607
12	137529	37	1700.245719607
12	148670	38	1700.245719607
12	159811	39	1700.245719607
12	170952	40	1700.245719607
12	183783	41	1700.245719607
12	196614	42	1700.245719607
12	209445	43	1700.245719607
12	224086	44	1700.245719607
12	238727	45	1700.245719607
12	253368	46	1700.245719607
12	269939	47	1700.245719607
12	286510	48	1700.245719607
12	303081	49	1700.245719607
12	321702	50	1700.245719607
12	340323	51	1700.245719607
12	358944	52	1700.245719607
12	379735	53	1700.245719607
12	400366	54	1700.245719607
12	420837	55	1700.245719607
12	443278	56	1700.245719607
12	465479	57	1700.245719607
12	487520	58	1700.245719607
12	511491	59	1700.245719607
12	535142	60	1700.245719607
12	558473	61	1700.245719607
12	583976	62	1700.245719607
12	608957	63	1700.245719607
12	634645	64	1700.245719607
12	661236	65	1700.245719607
12	687747	66	1700.245719607
12	714018	67	1700.245719607
12	742579	68	1700.245719607
12	771140	69	1700.245719607
12	799461	70	1700.245719607
12	830273	71	1700.245719607
12	861324	72	1700.2916829735
12	892215	73	1700.482053834
12	925796	74	1700.8394666873
12	959697	75	1701.1216738699
12	993598	76	1705.5038574925
12	1030309	77	1714.3795647118
12	1067020	78	1725.3015237851
12	1103731	79	1738.1559412936
12	1143372	80	1751.9177170889
12	1183013	81	1765.7988443403
12	1222654	82	1779.7122123512
12	1264699	83	1793.6109296437
12	1307150	84	1807.5094046211
12	1348891	85	1821.4135796735
12	1393806	86	1835.3107571499
12	1438199	87	1849.2073049042
12	1482250	88	1863.1146640033
12	1529186	89	1877.0056573721
12	1575681	90	1890.9043369247
12	1621960	91	1904.7847442236
12	1670681	92	1918.668109932
12	1718362	93	1932.5749678779
12	1765723	94	1946.4737224365
12	1815334	95	1960.3588204924
12	1864545	96	1974.228491012
12	1913190	97	1988.1174309151
12	1964767	98	2002.0171665456
12	2015621	99	2015.9024069337
12	2066160	100	2029.8173156315
11	755	4	2414.8859801291
11	1226	5	2414.8859801291
11	1697	6	2411.9954222892
11	2168	7	2407.2506839979
11	3009	8	2402.2569066116
11	3850	9	2395.8698252906
11	4691	10	2388.1231925822
11	6022	11	2379.0778566878
11	7353	12	2369.3658650925
11	8684	13	2359.6406075037
11	10625	14	2349.9377508366
11	12566	15	2340.5696662485
11	14507	16	2334.4685549028
11	17178	17	2338.029717051
11	19849	18	2348.6255299923
11	22520	19	2358.9043307323
11	26041	20	2371.8350753159
11	29563	21	2385.3663703802
11	33084	22	2396.5563227517
11	37575	23	2404.5991809166
11	42066	24	2409.8862054271
11	46557	25	2412.9588503218
11	52138	26	2414.4927103078
11	57719	27	2415.1559383976
11	63300	28	2415.5478023789
11	70091	29	2415.5478180381
11	76882	30	2415.5478180381
11	83673	31	2415.5478180381
11	91864	32	2415.5478180381
11	99985	33	2415.5478180381
11	108816	34	2415.5478180381
11	118387	35	2415.5478180381
11	127958	36	2415.5478180381
11	137529	37	2415.5478180381
11	148670	38	2415.5478180381
11	159811	39	2415.5478180381
11	170952	40	2415.5478180381
11	183783	41	2415.5478180381
11	196614	42	2415.5478180381
11	209445	43	2415.5478180381
11	224086	44	2415.5478180381
11	238727	45	2415.5478180381
11	253368	46	2415.5478180381
11	269939	47	2415.5478180381
11	286510	48	2415.5478180381
11	303081	49	2415.5478180381
11	321702	50	2415.5478180381
11	340323	51	2415.5478180381
11	358944	52	2415.5478180381
11	379735	53	2415.5478180381
11	400366	54	2415.5478180381
11	420837	55	2415.5478180381
11	443278	56	2415.5478180381
11	465479	57	2415.5478180381
11	487520	58	2415.5478180381
11	511491	59	2415.5478180381
11	535142	60	2415.5478180381
11	558473	61	2415.5478180381
11	583976	62	2415.5478180381
11	608957	63	2415.5478180381
11	634645	64	2415.5478180381
11	661236	65	2415.5478180381
11	687747	66	2415.5478180381
11	714018	67	2415.5478180381
11	742579	68	2415.5478180381
11	771140	69	2415.5478180381
11	799461	70	2415.5478180381
11	830273	71	2415.5478180381
11	861324	72	2416.0339113253
11	892215	73	2418.0472102772
11	925796	74	2421.8270898279
11	959697	75	2426.4962141452
11	993598	76	2430.8633357168
11	1030309	77	2432.2121231628
11	1067020	78	2433.8718671044
11	1103731	79	2435.8252750454
11	1143372	80	2437.8649430422
11	1183013	81	2438.9011490796
11	1222654	82	2439.8449846595
11	1264699	83	2440.8556555174
11	1307150	84	2441.8663087549
11	1348891	85	2442.8773764839
11	1393806	86	2443.887935371
11	1438199	87	2444.898448467
11	1482250	88	2445.9097477298
11	1529186	89	2446.9198569283
11	1575681	90	2447.9305250418
11	1621960	91	2448.9398644548
11	1670681	92	2449.9494189938
11	1718362	93	2450.3287069345
11	1765723	94	2449.2151406044
11	1815334	95	2448.1026684316
11	1864545	96	2446.9914323108
11	1913190	97	2445.8786523296
11	1964767	98	2444.7650073961
11	2015621	99	2443.6525238196
11	2066160	100	2442.5376632221
78	99985	33	4.4654144542034
78	108816	34	5.0736288288642
78	118387	35	6.5003253611678
78	127958	36	7.8342005736709
78	137529	37	8.2192715786142
78	148670	38	2.0878491414744
78	159811	39	1.852323959212
78	170952	40	2.3105485279139
78	183783	41	1.7784726977418
78	196614	42	2.0052274149834
78	209445	43	2.0853244826989
78	224086	44	2.0275716516599
78	238727	45	1.8792938644534
78	253368	46	1.9518540903194
78	269939	47	2.0389178210265
78	286510	48	2.1334852598329
78	303081	49	2.1936754947156
78	321702	50	1.8055257225404
78	340323	51	2.0369377469583
78	358944	52	2.209949410796
78	379735	53	2.151909011433
78	400366	54	1.8144483017369
78	420837	55	2.2194580012753
78	443278	56	1.8106700773088
78	465479	57	2.1185878326319
78	487520	58	2.0227516089439
78	511491	59	1.8364031316923
78	535142	60	2.0041028890327
78	558473	61	1.9678165861545
78	583976	62	2.4074224451073
78	608957	63	1.6914699024361
78	634645	64	2.1132231115928
78	661236	65	1.914615073261
78	687747	66	0.973
78	714018	67	0.973
78	742579	68	0.973
78	771140	69	0.973
78	799461	70	0.973
78	830273	71	0.973
78	861324	72	5.1445032547983
78	892215	73	5.3014299265004
78	925796	74	6.7706011011062
78	959697	75	7.1103095055507
78	993598	76	7.0840229168339
78	1030309	77	2.238866541488
78	1067020	78	2.0210505657683
78	1103731	79	2.1189468173708
78	1143372	80	1.7935316093877
78	1183013	81	2.0692050759586
78	1222654	82	1.8561960202653
78	1264699	83	2.1035464658439
78	1307150	84	2.0327469460036
78	1348891	85	2.1671443278093
78	1393806	86	1.7865762978007
78	1438199	87	2.3103465311785
78	1482250	88	2.012976861238
78	1529186	89	2.0030689039624
78	1575681	90	2.0858318022704
78	1621960	91	1.9234117790709
78	1670681	92	2.0967544746472
78	1718362	93	1.7147843054809
78	1765723	94	2.0956357283211
78	1815334	95	2.309356220299
78	1864545	96	1.9147064475076
78	1913190	97	1.8389829661363
78	1964767	98	1.9254170769556
78	2015621	99	2.0111529991642
78	2066160	100	2.0490774446135
77	99985	33	2.1108386883535
77	108816	34	1.8691156523162
77	118387	35	2.0254057548312
77	127958	36	2.0776507037738
77	137529	37	1.8608188961036
77	148670	38	0.019533643305767
77	159811	39	-0.049742171096149
77	170952	40	0.085004836751613
77	183783	41	-0.072280976942274
77	196614	42	-0.0040022042999048
77	209445	43	0.019461509070824
77	224086	44	0.002058622003533
77	238727	45	-0.041324748473707
77	253368	46	-0.018928290200419
77	269939	47	0.0071033121412611
77	286510	48	0.034467674037442
77	303081	49	0.050827320958488
77	321702	50	-0.063785842119252
77	340323	51	0.0056691252999013
77	358944	52	0.055781762108673
77	379735	53	0.037165113731753
77	400366	54	-0.062048794408328
77	420837	55	0.057502534452359
77	443278	56	-0.063039696579798
77	465479	57	0.028476990729104
77	487520	58	-0.00022832462796885
77	511491	59	-0.054618262723087
77	535142	60	-0.0040542280930094
77	558473	61	-0.014545713658446
77	583976	62	0.11346553873504
77	608957	63	-0.098136398824863
77	634645	64	0.027849071782548
77	661236	65	-0.030914818749297
77	687747	66	-1.1114011518593
77	714018	67	-2.6063574862225
77	742579	68	-2.0053043970964
77	771140	69	-0.54961151922627
77	799461	70	-2.7066454564751
77	830273	71	-0.39312288880501
77	861324	72	2.2819293023809
77	892215	73	1.8149891662062
77	925796	74	1.993133680406
77	959697	75	1.7701417050883
77	993598	76	1.5231597101439
77	1030309	77	0.064030358907766
77	1067020	78	-0.0011277328291897
77	1103731	79	0.027291263444349
77	1143372	80	-0.068190207039006
77	1183013	81	0.014125906925182
77	1222654	82	-0.048456614825408
77	1264699	83	0.025174012447241
77	1307150	84	0.0037890638178215
77	1348891	85	0.042720297689083
77	1393806	86	-0.069465376820879
77	1438199	87	0.085026629820931
77	1482250	88	-0.0037920323503204
77	1529186	89	-0.0065598196210335
77	1575681	90	0.017651054174639
77	1621960	91	-0.030050600105897
77	1670681	92	0.021198307645973
77	1718362	93	-0.09089187028585
77	1765723	94	0.023032740838826
77	1815334	95	0.084191508153454
77	1864545	96	-0.032791125639342
77	1913190	97	-0.054039195151999
77	1964767	98	-0.027280989249704
77	2015621	99	-0.001412735073826
77	2066160	100	0.0097102233231983
76	91864	32	3.8781328956006
76	99985	33	5.9889715839541
76	108816	34	7.8580872362704
76	118387	35	9.8834929911015
76	127958	36	11.961143694875
76	137529	37	13.821962590979
76	148670	38	13.841496234285
76	159811	39	13.791754063189
76	170952	40	13.87675889994
76	183783	41	13.804477922998
76	196614	42	13.800475718698
76	209445	43	13.819937227769
76	224086	44	13.821995849772
76	238727	45	13.780671101299
76	253368	46	13.761742811098
76	269939	47	13.768846123239
76	286510	48	13.803313797277
76	303081	49	13.854141118235
76	321702	50	13.790355276116
76	340323	51	13.796024401416
76	358944	52	13.851806163525
76	379735	53	13.888971277256
76	400366	54	13.826922482848
76	420837	55	13.884425017301
76	443278	56	13.821385320721
76	465479	57	13.84986231145
76	487520	58	13.849633986822
76	511491	59	13.795015724099
76	535142	60	13.790961496006
76	558473	61	13.776415782347
76	583976	62	13.889881321082
76	608957	63	13.791744922257
76	634645	64	13.81959399404
76	661236	65	13.788679175291
76	687747	66	12.677278023431
76	714018	67	10.070920537209
76	742579	68	8.0656161401125
76	771140	69	7.5160046208862
76	799461	70	4.8093591644111
76	830273	71	4.4162362756061
76	861324	72	6.698165577987
76	892215	73	8.5131547441932
76	925796	74	10.506288424599
76	959697	75	12.276430129688
76	993598	76	13.799589839831
76	1030309	77	13.863620198739
76	1067020	78	13.86249246591
76	1103731	79	13.889783729354
76	1143372	80	13.821593522315
76	1183013	81	13.835719429241
76	1222654	82	13.787262814415
76	1264699	83	13.812436826862
76	1307150	84	13.81622589068
76	1348891	85	13.858946188369
76	1393806	86	13.789480811548
76	1438199	87	13.874507441369
76	1482250	88	13.870715409019
76	1529186	89	13.864155589398
76	1575681	90	13.881806643573
76	1621960	91	13.851756043467
76	1670681	92	13.872954351113
76	1718362	93	13.782062480827
76	1765723	94	13.805095221666
76	1815334	95	13.889286729819
76	1864545	96	13.85649560418
76	1913190	97	13.802456409028
76	1964767	98	13.775175419778
76	2015621	99	13.773762684704
76	2066160	100	13.783472908027
75	83673	31	1578.4388783313
75	91864	32	1578.4388783313
75	99985	33	1579.4869142091
75	108816	34	1581.3181383898
75	118387	35	1586.3177352035
75	127958	36	1592.7436173307
75	137529	37	1600.5917358324
75	148670	38	1609.8778414503
75	159811	39	1619.7151225414
75	170952	40	1629.5601961529
75	183783	41	1639.3983152201
75	196614	42	1649.5286840415
75	209445	43	1661.4561285898
75	224086	44	1666.4840719132
75	238727	45	1669.8166570077
75	253368	46	1678.7057915125
75	269939	47	1688.2674658261
75	286510	48	1697.8285146095
75	303081	49	1707.3745432897
75	321702	50	1716.9375457214
75	340323	51	1726.4961953163
75	358944	52	1736.0499440478
75	379735	53	1745.6077958886
75	400366	54	1755.1644540736
75	420837	55	1764.7227394646
75	443278	56	1774.2892386299
75	465479	57	1783.855733173
75	487520	58	1793.4064973341
75	511491	59	1802.9676627694
75	535142	60	1812.5248709423
75	558473	61	1822.0788389612
75	583976	62	1831.6425458826
75	608957	63	1841.2008921029
75	634645	64	1850.7620924786
75	661236	65	1860.3276121235
75	687747	66	1869.8893356398
75	714018	67	1879.1694198567
75	742579	68	1886.8917728998
75	771140	69	1892.9720528545
75	799461	70	1898.4701618003
75	830273	71	1902.5824837871
75	861324	72	1905.3482651897
75	892215	73	1908.2715394748
75	925796	74	1903.2526064925
75	959697	75	1896.386160084
75	993598	76	1888.136794324
75	1030309	77	1878.653218518
75	1067020	78	1868.7471943684
75	1103731	79	1856.7886367179
75	1143372	80	1844.5030983258
75	1183013	81	1831.0845813574
75	1222654	82	1817.2605464058
75	1264699	83	1803.4571435144
75	1307150	84	1789.6352537079
75	1348891	85	1775.8244733913
75	1393806	86	1762.7942781635
75	1438199	87	1750.3888010196
75	1482250	88	1737.9676182093
75	1529186	89	1725.5339200404
75	1575681	90	1714.8021883303
75	1621960	91	1704.5357135199
75	1670681	92	1694.1021811916
75	1718362	93	1684.5664869063
75	1765723	94	1675.0267055668
75	1815334	95	1665.4884167109
75	1864545	96	1655.9296197826
75	1913190	97	1646.3843091475
75	1964767	98	1636.8529427582
75	2015621	99	1627.3383153565
75	2066160	100	1617.7946480103
74	83673	31	2414.9088668814
74	91864	32	2414.9088668814
74	99985	33	2412.0546981049
74	108816	34	2407.3942507602
74	118387	35	2402.4581433184
74	127958	36	2396.1138628159
74	137529	37	2388.3654067743
74	148670	38	2379.1972244679
74	159811	39	2369.4848660104
74	170952	40	2359.7648139881
74	183783	41	2350.0516281956
74	196614	42	2340.6763167215
74	209445	43	2334.4938026877
74	224086	44	2324.6579980353
74	238727	45	2311.4227438821
74	253368	46	2301.0280649965
74	269939	47	2291.0344123471
74	286510	48	2281.041413488
74	303081	49	2271.0631402844
74	321702	50	2261.0643239404
74	340323	51	2251.0679976962
74	358944	52	2241.0771183553
74	379735	53	2231.0889264947
74	400366	54	2221.1019820333
74	420837	55	2211.1119247437
74	443278	56	2201.1130245874
74	465479	57	2191.1141292618
74	487520	58	2181.1282021946
74	511491	59	2171.1277911395
74	535142	60	2161.131519146
74	558473	61	2151.1428538389
74	583976	62	2141.1447589439
74	608957	63	2131.152268235
74	634645	64	2121.1567937341
74	661236	65	2111.1568037805
74	687747	66	2101.1607823779
74	714018	67	2091.4591924605
74	742579	68	2083.3860865855
74	771140	69	2077.029637514
74	799461	70	2071.281801928
74	830273	71	2066.9826963819
74	861324	72	2064.0912919142
74	892215	73	2059.4499242316
74	925796	74	2053.7647703051
74	959697	75	2047.0742539472
74	993598	76	2039.0362509877
74	1030309	77	2029.795660545
74	1067020	78	2020.1434456051
74	1103731	79	2013.3538790523
74	1143372	80	2006.9970187048
74	1183013	81	2005.2400645509
74	1222654	82	2005.0915848897
74	1264699	83	2004.943326831
74	1307150	84	2004.7948702101
74	1348891	85	2004.6465329127
74	1393806	86	2001.2352539133
74	1438199	87	1995.1652042351
74	1482250	88	1989.087469711
74	1529186	89	1983.0074248209
74	1575681	90	1974.4419462159
74	1621960	91	1965.194444611
74	1670681	92	1962.6566306353
74	1718362	93	1972.6551668805
74	1765723	94	1982.6579885555
74	1815334	95	1992.659245306
74	1864545	96	2002.6733072419
74	1913190	97	2012.6800462485
74	1964767	98	2022.6721669333
74	2015621	99	2032.648716704
74	2066160	100	2042.655577603
85	127958	36	4.6113131454411
85	137529	37	5.8306010090161
85	148670	38	6.8717578483744
85	159811	39	7.7555524650521
85	170952	40	6.8734535694948
85	183783	41	1.6353322509205
85	196614	42	2.2070650583758
85	209445	43	2.0364570035017
85	224086	44	2.0966006532286
85	238727	45	2.0361678591492
85	253368	46	1.935998268585
85	269939	47	0.973
85	286510	48	0.973
85	303081	49	0.973
85	321702	50	0.973
85	340323	51	0.973
85	358944	52	0.973
85	379735	53	0.973
85	400366	54	0.973
85	420837	55	0.973
85	443278	56	0.973
85	465479	57	0.973
85	487520	58	0.973
85	511491	59	0.973
85	535142	60	0.973
85	558473	61	0.973
85	583976	62	0.973
85	608957	63	0.973
85	634645	64	0.973
85	661236	65	0.973
85	687747	66	0.973
85	714018	67	0.973
85	742579	68	0.973
85	771140	69	0.973
85	799461	70	0.973
85	830273	71	1.3791729738566
85	861324	72	2.8149026802971
85	892215	73	3.5845388448282
85	925796	74	0.973
85	959697	75	0.973
85	993598	76	1.2183455351672
85	1030309	77	1.5831852327864
85	1067020	78	1.5833754332441
85	1103731	79	1.4831128035568
85	1143372	80	1.5940732439894
85	1183013	81	0.973
85	1222654	82	2.1275853678123
85	1264699	83	0.973
85	1307150	84	2.8740406691488
85	1348891	85	5.4014535903063
85	1393806	86	6.373515779905
85	1438199	87	6.8375573813983
85	1482250	88	7.9113500832374
85	1529186	89	4.7812407555824
85	1575681	90	1.7575575331037
85	1621960	91	1.8930646846198
85	1670681	92	2.3771053776247
85	1718362	93	1.694243090248
85	1765723	94	2.0612644872852
85	1815334	95	2.1777055797268
85	1864545	96	1.8650676353512
85	1913190	97	2.2649574177431
85	1964767	98	2.1226412211536
85	2015621	99	1.9031075629769
85	2066160	100	2.0542495454316
84	127958	36	2.0742925864877
84	137529	37	2.0937991899811
84	148670	38	2.039494948599
84	159811	39	1.9579416349204
84	170952	40	1.4483906830332
84	183783	41	-0.11453826582991
84	196614	42	0.055824018120765
84	209445	43	0.0044824412139146
84	224086	44	0.021829164160881
84	238727	45	0.0036153634870431
84	253368	46	-0.025652158388404
84	269939	47	-0.91783640382958
84	286510	48	-3.3057787850763
84	303081	49	-2.9235235087085
84	321702	50	-2.5746855751294
84	340323	51	-1.9533801941003
84	358944	52	-1.1702744627548
84	379735	53	-0.54917306891661
84	400366	54	-0.43219964382878
84	420837	55	-0.0028680481942209
84	443278	56	0
84	465479	57	0
84	487520	58	0
84	511491	59	0
84	535142	60	0
84	558473	61	0
84	583976	62	0
84	608957	63	0
84	634645	64	0
84	661236	65	0
84	687747	66	0
84	714018	67	0
84	742579	68	0
84	771140	69	0
84	799461	70	0
84	830273	71	0.96132003558374
84	861324	72	2.1040443270812
84	892215	73	1.8706671066186
84	925796	74	-0.94904634926066
84	959697	75	-0.93399987732981
84	993598	76	-0.053721801511383
84	1030309	77	0.37700185425857
84	1067020	78	0.32523544210491
84	1103731	79	0.19168927737675
84	1143372	80	0.27505617366949
84	1183013	81	-0.18258442230048
84	1222654	82	0.69376228802938
84	1264699	83	-0.69818916738231
84	1307150	84	1.2017789800226
84	1348891	85	2.1931030440051
84	1393806	86	2.0761713589774
84	1438199	87	1.8530225331523
84	1482250	88	1.8745059375395
84	1529186	89	0.81340183373073
84	1575681	90	-0.081214480611962
84	1621960	91	-0.039706886336207
84	1670681	92	0.10124884529505
84	1718362	93	-0.099223952570465
84	1765723	94	0.010222486185375
84	1815334	95	0.043558481901419
84	1864545	96	-0.048283575880342
84	1913190	97	0.068825799857732
84	1964767	98	0.025662384668831
84	2015621	99	-0.038462092534173
84	2066160	100	0.006344475236256
83	118387	35	4.2702400847528
83	127958	36	6.3445326712405
83	137529	37	8.4383318612216
83	148670	38	10.477826809821
83	159811	39	12.435768444741
83	170952	40	13.884159127774
83	183783	41	13.769620861944
83	196614	42	13.825444880065
83	209445	43	13.829927321279
83	224086	44	13.85175648544
83	238727	45	13.855371848927
83	253368	46	13.829719690538
83	269939	47	12.911883286709
83	286510	48	9.6061045016326
83	303081	49	6.6825809929241
83	321702	50	4.1078954177947
83	340323	51	2.1545152236944
83	358944	52	0.98424076093961
83	379735	53	0.435067692023
83	400366	54	0.0028680481942209
83	420837	55	0
83	443278	56	0
83	465479	57	0
83	487520	58	0
83	511491	59	0
83	535142	60	0
83	558473	61	0
83	583976	62	0
83	608957	63	0
83	634645	64	0
83	661236	65	0
83	687747	66	0
83	714018	67	0
83	742579	68	0
83	771140	69	0
83	799461	70	0
83	830273	71	0.96132003558374
83	861324	72	3.0653643626649
83	892215	73	4.9360314692836
83	925796	74	3.9869851200229
83	959697	75	3.0529852426931
83	993598	76	2.9992634411817
83	1030309	77	3.3762652954403
83	1067020	78	3.7015007375452
83	1103731	79	3.8931900149219
83	1143372	80	4.1682461885914
83	1183013	81	3.9856617662909
83	1222654	82	4.6794240543203
83	1264699	83	3.981234886938
83	1307150	84	5.1830138669606
83	1348891	85	7.3761169109657
83	1393806	86	9.4522882699431
83	1438199	87	11.305310803095
83	1482250	88	13.179816740635
83	1529186	89	13.993218574366
83	1575681	90	13.912004093754
83	1621960	91	13.872297207417
83	1670681	92	13.973546052712
83	1718362	93	13.874322100142
83	1765723	94	13.884544586327
83	1815334	95	13.928103068229
83	1864545	96	13.879819492348
83	1913190	97	13.948645292206
83	1964767	98	13.974307676875
83	2015621	99	13.935845584341
83	2066160	100	13.942190059577
82	108816	34	1578.4707230413
82	118387	35	1578.4707230413
82	127958	36	1579.6216893159
82	137529	37	1581.8394772839
82	148670	38	1587.1823596768
82	159811	39	1593.9737075577
82	170952	40	1602.1915589971
82	183783	41	1611.7105573192
82	196614	42	1621.5393672474
82	209445	43	1631.380566814
82	224086	44	1641.2168012494
82	238727	45	1651.5347287627
82	253368	46	1663.9692579499
82	269939	47	1675.3560293391
82	286510	48	1684.2266403716
82	303081	49	1691.648345327
82	321702	50	1694.6480287742
82	340323	51	1695.4171862323
82	358944	52	1695.8612880809
82	379735	53	1696.0828857776
82	400366	54	1696.1777900755
82	420837	55	1696.2320073843
82	443278	56	1696.2320075585
82	465479	57	1696.2320075585
82	487520	58	1696.2320075585
82	511491	59	1696.2320075585
82	535142	60	1696.2320075585
82	558473	61	1696.2320075585
82	583976	62	1696.2320075585
82	608957	63	1696.2320075585
82	634645	64	1696.2320075585
82	661236	65	1696.2320075585
82	687747	66	1696.2320075585
82	714018	67	1696.2320075585
82	742579	68	1696.2320075585
82	771140	69	1696.2320075585
82	799461	70	1696.2320075585
82	830273	71	1696.2320075585
82	861324	72	1696.2683372637
82	892215	73	1696.5480019897
82	925796	74	1697.0308893798
82	959697	75	1697.5689364607
82	993598	76	1697.8889929941
82	1030309	77	1698.1727681952
82	1067020	78	1698.4800184174
82	1103731	79	1698.8061458087
82	1143372	80	1699.1803725911
82	1183013	81	1699.54812939
82	1222654	82	1699.9605110362
82	1264699	83	1700.3431561999
82	1307150	84	1700.7931429166
82	1348891	85	1701.062729896
82	1393806	86	1703.9159166599
82	1438199	87	1712.2573343301
82	1482250	88	1722.6630621813
82	1529186	89	1734.844511956
82	1575681	90	1748.5392248593
82	1621960	91	1762.4120490858
82	1670681	92	1776.3326406628
82	1718362	93	1790.2213233672
82	1765723	94	1804.1037552245
82	1815334	95	1818.0088927727
82	1864545	96	1831.8865494421
82	1913190	97	1845.7757373853
82	1964767	98	1859.6818928709
82	2015621	99	1873.5835819086
82	2066160	100	1887.4830899313
81	108816	34	2414.8221425813
81	118387	35	2414.8221425813
81	127958	36	2411.687658285
81	137529	37	2406.8795322964
81	148670	38	2401.6044986241
81	159811	39	2394.8993933798
81	170952	40	2386.7858996009
81	183783	41	2377.3877820713
81	196614	42	2367.6837872023
81	209445	43	2357.9675600296
81	224086	44	2348.2562349353
81	238727	45	2339.1092848267
81	253368	46	2334.0765048759
81	269939	47	2339.8904022874
81	286510	48	2350.2837763785
81	303081	49	2358.5134268842
81	321702	50	2365.5124602922
81	340323	51	2370.6584133287
81	358944	52	2373.6296219283
81	379735	53	2375.1121939693
81	400366	54	2375.747139459
81	420837	55	2376.1098736735
81	443278	56	2376.1098748404
81	465479	57	2376.1098748404
81	487520	58	2376.1098748404
81	511491	59	2376.1098748404
81	535142	60	2376.1098748404
81	558473	61	2376.1098748404
81	583976	62	2376.1098748404
81	608957	63	2376.1098748404
81	634645	64	2376.1098748404
81	661236	65	2376.1098748404
81	687747	66	2376.1098748404
81	714018	67	2376.1098748404
81	742579	68	2376.1098748404
81	771140	69	2376.1098748404
81	799461	70	2376.1098748404
81	830273	71	2376.1098748404
81	861324	72	2376.3529342444
81	892215	73	2378.5115167199
81	925796	74	2382.5686330936
81	959697	75	2387.2390490974
81	993598	76	2390.6238606296
81	1030309	77	2393.6249728444
81	1067020	78	2396.8743490828
81	1103731	79	2400.3233639857
81	1143372	80	2404.2810620612
81	1183013	81	2408.1703357465
81	1222654	82	2412.5315469851
81	1264699	83	2416.5782750653
81	1307150	84	2421.3371850295
81	1348891	85	2425.4782970479
81	1393806	86	2430.5881359265
81	1438199	87	2431.8896206708
81	1482250	88	2433.4709160817
81	1529186	89	2435.3220571936
81	1575681	90	2437.403159734
81	1621960	91	2438.71331988
81	1670681	92	2439.5992328721
81	1718362	93	2440.6091740463
81	1765723	94	2441.6186606789
81	1815334	95	2442.6297983974
81	1864545	96	2443.6389377932
81	1913190	97	2444.6489157069
81	1964767	98	2445.6601274466
81	2015621	99	2446.6710144004
81	2066160	100	2447.6817427577
92	159811	39	4.3175738114794
92	170952	40	5.1540933010344
92	183783	41	5.6578176213975
92	196614	42	7.207034203908
92	209445	43	8.3491394778072
92	224086	44	2.8432150657056
92	238727	45	1.8226977205271
92	253368	46	2.267473223945
92	269939	47	1.8467265867293
92	286510	48	1.9112047048261
92	303081	49	2.0988627602421
92	321702	50	0.973
92	340323	51	0.973
92	358944	52	0.973
92	379735	53	0.973
92	400366	54	0.973
92	420837	55	0.973
92	443278	56	0.973
92	465479	57	0.973
92	487520	58	0.973
92	511491	59	0.973
92	535142	60	0.973
92	558473	61	0.973
92	583976	62	0.973
92	608957	63	0.973
92	634645	64	0.973
92	661236	65	0.973
92	687747	66	0.973
92	714018	67	0.973
92	742579	68	0.973
92	771140	69	0.973
92	799461	70	0.973
92	830273	71	1.176152757298
92	861324	72	1.7314605513311
92	892215	73	2.7786633287417
92	925796	74	1.4306438227131
92	959697	75	0.973
92	993598	76	0.973
92	1030309	77	1.3394577170815
92	1067020	78	1.4132511220978
92	1103731	79	1.6160334396033
92	1143372	80	1.3958278524907
92	1183013	81	1.5314089643906
92	1222654	82	1.4379009698332
92	1264699	83	1.3726741882483
92	1307150	84	1.6846400022187
92	1348891	85	0.973
92	1393806	86	2.2333138025818
92	1438199	87	4.8554674629918
92	1482250	88	5.5438929051531
92	1529186	89	7.2819976680465
92	1575681	90	8.6116707924184
92	1621960	91	5.2872604399485
92	1670681	92	1.6481015936526
92	1718362	93	2.1559233994793
92	1765723	94	2.2862308016231
92	1815334	95	1.8370607996362
92	1864545	96	1.8931683970897
92	1913190	97	2.2326440540426
92	1964767	98	1.9134950825988
92	2015621	99	1.8779862552576
92	2066160	100	2.351142116203
91	159811	39	1.9347295844578
91	170952	40	1.8592859901977
91	183783	41	1.6988864694326
91	196614	42	1.9162585211475
91	209445	43	1.9370687966631
91	224086	44	0.24562708611328
91	238727	45	-0.0586130354763
91	253368	46	0.072623267036397
91	269939	47	-0.051933851549402
91	286510	48	-0.031673493508714
91	303081	49	0.024063306751195
91	321702	50	-2.4728629673268
91	340323	51	-2.576142261659
91	358944	52	-2.4139707980711
91	379735	53	-2.2450088328144
91	400366	54	-1.7198886008445
91	420837	55	-1.231161162512
91	443278	56	-0.68186915335902
91	465479	57	-0.1798963627182
91	487520	58	-0.28240746686756
91	511491	59	0
91	535142	60	0
91	558473	61	0
91	583976	62	0
91	608957	63	0
91	634645	64	0
91	661236	65	0
91	687747	66	0
91	714018	67	0
91	742579	68	0
91	771140	69	0
91	799461	70	0
91	830273	71	0.43328198494215
91	861324	72	1.2927135955086
91	892215	73	1.773618700033
91	925796	74	0.15841743234998
91	959697	75	-0.37649096372272
91	993598	76	-0.12926746219709
91	1030309	77	0.089504650936638
91	1067020	78	0.16476431911923
91	1103731	79	0.35293171146548
91	1143372	80	0.10131365157205
91	1183013	81	0.22175326123637
91	1222654	82	0.11705372217538
91	1264699	83	0.049427743657818
91	1307150	84	0.3143586671347
91	1348891	85	-0.38177100606369
91	1393806	86	0.73800037168551
91	1438199	87	2.0206693315459
91	1482250	88	1.8606041753851
91	1529186	89	2.1029670098261
91	1575681	90	2.1240521002607
91	1621960	91	0.9636190990716
91	1670681	92	-0.11311427766457
91	1718362	93	0.037473372865934
91	1765723	94	0.073692132814321
91	1815334	95	-0.058015003560577
91	1864545	96	-0.040200148229486
91	1913190	97	0.059148893170059
91	1964767	98	-0.034807787197643
91	2015621	99	-0.044195457180031
91	2066160	100	0.093843355795835
90	148670	38	4.2568849649075
90	159811	39	6.1916145493653
90	170952	40	8.050900539563
90	183783	41	9.7497870089956
90	196614	42	11.666045530143
90	209445	43	13.603114326806
90	224086	44	13.848741412919
90	238727	45	13.790128377443
90	253368	46	13.86275164448
90	269939	47	13.81081779293
90	286510	48	13.779144299421
90	303081	49	13.803207606173
90	321702	50	11.330344638846
90	340323	51	8.7542023771868
90	358944	52	6.3402315791157
90	379735	53	4.0952227463013
90	400366	54	2.3753341454568
90	420837	55	1.1441729829448
90	443278	56	0.46230382958576
90	465479	57	0.28240746686756
90	487520	58	0
90	511491	59	0
90	535142	60	0
90	558473	61	0
90	583976	62	0
90	608957	63	0
90	634645	64	0
90	661236	65	0
90	687747	66	0
90	714018	67	0
90	742579	68	0
90	771140	69	0
90	799461	70	0
90	830273	71	0.43328198494215
90	861324	72	1.7259955804507
90	892215	73	3.4996142804838
90	925796	74	3.6580317128337
90	959697	75	3.281540749111
90	993598	76	3.1522732869139
90	1030309	77	3.2417779378506
90	1067020	78	3.4065422569698
90	1103731	79	3.7594739684353
90	1143372	80	3.8607876200073
90	1183013	81	4.0825408812437
90	1222654	82	4.1995946034191
90	1264699	83	4.2490223470769
90	1307150	84	4.5633810142116
90	1348891	85	4.1816100081479
90	1393806	86	4.9196103798334
90	1438199	87	6.9402797113793
90	1482250	88	8.8008838867644
90	1529186	89	10.903850896591
90	1575681	90	13.027902996851
90	1621960	91	13.991522095923
90	1670681	92	13.878407818258
90	1718362	93	13.915881191124
90	1765723	94	13.989573323939
90	1815334	95	13.931558320378
90	1864545	96	13.891358172148
90	1913190	97	13.950507065319
90	1964767	98	13.915699278121
90	2015621	99	13.871503820941
90	2066160	100	13.965347176737
89	137529	37	1578.4480971554
89	148670	38	1578.4480971554
89	159811	39	1579.5861194981
89	170952	40	1581.6832450312
89	183783	41	1586.7714346414
89	196614	42	1593.1556592714
89	209445	43	1600.8315338548
89	224086	44	1609.9088475667
89	238727	45	1619.7431042967
89	253368	46	1629.5850376515
89	269939	47	1639.422790275
89	286510	48	1649.5613759225
89	303081	49	1661.4903467773
89	321702	50	1673.7775505744
89	340323	51	1681.8184681525
89	358944	52	1688.4761311011
89	379735	53	1693.4333279468
89	400366	54	1694.6188094784
89	420837	55	1695.0800105063
89	443278	56	1695.323853191
89	465479	57	1695.4301567292
89	487520	58	1695.4926020028
89	511491	59	1695.4926367318
89	535142	60	1695.4926367318
89	558473	61	1695.4926367318
89	583976	62	1695.4926367318
89	608957	63	1695.4926367318
89	634645	64	1695.4926367318
89	661236	65	1695.4926367318
89	687747	66	1695.4926367318
89	714018	67	1695.4926367318
89	742579	68	1695.4926367318
89	771140	69	1695.4926367318
89	799461	70	1695.4926367318
89	830273	71	1695.4926367318
89	861324	72	1695.5092441514
89	892215	73	1695.6500512529
89	925796	74	1696.0479558557
89	959697	75	1696.576212707
89	993598	76	1696.9860513834
89	1030309	77	1697.3642856944
89	1067020	78	1697.6942803226
89	1103731	79	1698.0077526132
89	1143372	80	1698.3563301992
89	1183013	81	1698.710136475
89	1222654	82	1699.1008456564
89	1264699	83	1699.4779937407
89	1307150	84	1699.9069312057
89	1348891	85	1700.2957840115
89	1393806	86	1700.7550936602
89	1438199	87	1701.0311032543
89	1482250	88	1703.0899584983
89	1529186	89	1710.9556352161
89	1575681	90	1720.7663780665
89	1621960	91	1732.7150589358
89	1670681	92	1746.3320868779
89	1718362	93	1760.1651204042
89	1765723	94	1774.0660701049
89	1815334	95	1787.9614763409
89	1864545	96	1801.8796568075
89	1913190	97	1815.7649520496
89	1964767	98	1829.6597178709
89	2015621	99	1843.5522390213
89	2066160	100	1857.4358633878
88	137529	37	2414.8837607935
88	148670	38	2414.8837607935
88	159811	39	2411.7845273567
88	170952	40	2407.0337805712
88	183783	41	2402.0102053639
88	196614	42	2395.7070533537
88	209445	43	2388.128653922
88	224086	44	2379.1666120953
88	238727	45	2369.457239592
88	253368	46	2359.7402879496
88	269939	47	2350.0274639468
88	286510	48	2340.6507792949
88	303081	49	2334.4881208574
88	321702	50	2337.9357753915
88	340323	51	2347.6134444478
88	358944	52	2354.9958774032
88	379735	53	2360.492727221
88	400366	54	2365.3169722019
88	420837	55	2368.4025807536
88	443278	56	2370.0339801343
88	465479	57	2370.7451908394
88	487520	58	2371.1629732291
88	511491	59	2371.1632055854
88	535142	60	2371.1632055854
88	558473	61	2371.1632055854
88	583976	62	2371.1632055854
88	608957	63	2371.1632055854
88	634645	64	2371.1632055854
88	661236	65	2371.1632055854
88	687747	66	2371.1632055854
88	714018	67	2371.1632055854
88	742579	68	2371.1632055854
88	771140	69	2371.1632055854
88	799461	70	2371.1632055854
88	830273	71	2371.1632055854
88	861324	72	2371.2743154737
88	892215	73	2372.2163680032
88	925796	74	2374.87849964
88	959697	75	2378.7485371215
88	993598	76	2382.1919138548
88	1030309	77	2385.369757483
88	1067020	78	2388.5646441202
88	1103731	79	2391.879822889
88	1143372	80	2395.5662635881
88	1183013	81	2399.3080011805
88	1222654	82	2403.4400116293
88	1264699	83	2407.4286044257
88	1307150	84	2411.9649045005
88	1348891	85	2416.0772825456
88	1393806	86	2420.934788733
88	1438199	87	2424.9321292819
88	1482250	88	2430.3105598232
88	1529186	89	2431.6918093439
88	1575681	90	2433.1826884891
88	1621960	91	2434.998457121
88	1670681	92	2437.0677543485
88	1718362	93	2438.5757722502
88	1765723	94	2439.4344150142
88	1815334	95	2440.4448451026
88	1864545	96	2441.456931261
88	1913190	97	2442.4666261098
88	1964767	98	2443.4770096291
88	2015621	99	2444.487229923
88	2066160	100	2445.496803271
99	196614	42	4.001339255465
99	209445	43	5.0718461674772
99	224086	44	6.4436042791533
99	238727	45	7.4600722370782
99	253368	46	8.2928262064971
99	269939	47	2.6715295448244
99	286510	48	1.7697054524115
99	303081	49	2.1441863417738
99	321702	50	1.7789883508685
99	340323	51	2.0776377007499
99	358944	52	0.973
99	379735	53	0.973
99	400366	54	0.973
99	420837	55	0.973
99	443278	56	0.973
99	465479	57	0.973
99	487520	58	0.973
99	511491	59	0.973
99	535142	60	0.973
99	558473	61	0.973
99	583976	62	0.973
99	608957	63	0.973
99	634645	64	0.973
99	661236	65	0.973
99	687747	66	0.973
99	714018	67	0.973
99	742579	68	0.973
99	771140	69	0.973
99	799461	70	0.973
99	830273	71	1.177637300246
99	861324	72	1.1645713778635
99	892215	73	2.0575064687029
99	925796	74	1.9457786612201
99	959697	75	1.2874867961489
99	993598	76	1.2487896242365
99	1030309	77	1.3748810872006
99	1067020	78	1.3684936214299
99	1103731	79	1.4714874734199
99	1143372	80	1.4348926335345
99	1183013	81	1.596914402596
99	1222654	82	1.2854140033225
99	1264699	83	1.5894047564339
99	1307150	84	1.3644284924073
99	1348891	85	1.4209980797108
99	1393806	86	1.4517588426739
99	1438199	87	1.2219126586422
99	1482250	88	1.6140333163151
99	1529186	89	5.2880721015822
99	1575681	90	5.791681932537
99	1621960	91	7.1508268868213
99	1670681	92	8.1100637133704
99	1718362	93	5.5012491397711
99	1765723	94	1.9236975772271
99	1815334	95	1.9633303125035
99	1864545	96	2.3248584111165
99	1913190	97	2.0321577354995
99	1964767	98	1.9317736064802
99	2015621	99	1.834275728156
99	2066160	100	2.048343073103
98	196614	42	1.8292910641129
98	209445	43	1.8933523632865
98	224086	44	2.02361853824
98	238727	45	1.9844399934215
98	253368	46	1.9065589059051
98	269939	47	0.19305225715483
98	286510	48	-0.074792632721365
98	303081	49	0.036599705102853
98	321702	50	-0.071131851973478
98	340323	51	0.018313341932371
98	358944	52	-0.8669417908723
98	379735	53	-2.5442040767445
98	400366	54	-2.4618522567641
98	420837	55	-2.310100419813
98	443278	56	-1.9909967040025
98	465479	57	-1.4873374580696
98	487520	58	-1.1571883468867
98	511491	59	-0.53434581518516
98	535142	60	-0.42977031436242
98	558473	61	-0.0005673633607285
98	583976	62	0
98	608957	63	0
98	634645	64	0
98	661236	65	0
98	687747	66	0
98	714018	67	0
98	742579	68	0
98	771140	69	0
98	799461	70	0
98	830273	71	0.43902448495966
98	861324	72	0.17092858627942
98	892215	73	1.5872951733247
98	925796	74	0.91163122954933
98	959697	75	0.030633562042195
98	993598	76	-0.019328374218144
98	1030309	77	0.13356792344966
98	1067020	78	0.11397650362396
98	1103731	79	0.2137268784896
98	1143372	80	0.15525427616755
98	1183013	81	0.29475925806319
98	1222654	82	-0.02466421984598
98	1264699	83	0.25916093276542
98	1307150	84	0.038022121758377
98	1348891	85	0.086373137986122
98	1393806	86	0.10736906438752
98	1438199	87	-0.1019337118378
98	1482250	88	0.24249184769414
98	1529186	89	2.2853883779515
98	1575681	90	1.9570451898943
98	1621960	91	2.0476809244207
98	1670681	92	1.9851669659489
98	1718362	93	1.0318765081811
98	1765723	94	-0.031710438337177
98	1815334	95	-0.019330988894216
98	1864545	96	0.085502049827483
98	1913190	97	-0.0013340473058641
98	1964767	98	-0.030278271399439
98	2015621	99	-0.05776966908248
98	2066160	100	0.0059918466582882
97	183783	41	4.0440028615997
97	196614	42	5.8732939257126
97	209445	43	7.7666462889991
97	224086	44	9.7902648272391
97	238727	45	11.774704820661
97	253368	46	13.681263726566
97	269939	47	13.874315983721
97	286510	48	13.799523350999
97	303081	49	13.836123056102
97	321702	50	13.764991204129
97	340323	51	13.783304546061
97	358944	52	12.916362755189
97	379735	53	10.372158678444
97	400366	54	7.9103064216801
97	420837	55	5.6002060018671
97	443278	56	3.6092092978645
97	465479	57	2.121871839795
97	487520	58	0.96468349290831
97	511491	59	0.43033767772315
97	535142	60	0.0005673633607285
97	558473	61	0
97	583976	62	0
97	608957	63	0
97	634645	64	0
97	661236	65	0
97	687747	66	0
97	714018	67	0
97	742579	68	0
97	771140	69	0
97	799461	70	0
97	830273	71	0.43902448495966
97	861324	72	0.60995307123908
97	892215	73	2.1972482445638
97	925796	74	3.1088794741131
97	959697	75	3.1395130361553
97	993598	76	3.1201846619372
97	1030309	77	3.2537525853869
97	1067020	78	3.3677290890108
97	1103731	79	3.5814559675004
97	1143372	80	3.736710243668
97	1183013	81	4.0314695017312
97	1222654	82	4.0068052818852
97	1264699	83	4.2659662146506
97	1307150	84	4.303988336409
97	1348891	85	4.3903614743951
97	1393806	86	4.4977305387826
97	1438199	87	4.3957968269448
97	1482250	88	4.638288674639
97	1529186	89	6.9236770525904
97	1575681	90	8.8807222424847
97	1621960	91	10.928403166905
97	1670681	92	12.913570132854
97	1718362	93	13.945446641035
97	1765723	94	13.913736202698
97	1815334	95	13.894405213804
97	1864545	96	13.979907263631
97	1913190	97	13.978573216326
97	1964767	98	13.948294944926
97	2015621	99	13.890525275844
97	2066160	100	13.896517122502
96	170952	40	1578.4552196087
96	183783	41	1578.4552196087
96	196614	42	1579.5251620635
96	209445	43	1581.3947969861
96	224086	44	1586.2890501851
96	238727	45	1592.5833214894
96	253368	46	1600.32594602
96	269939	47	1609.4426499819
96	286510	48	1619.2642698605
96	303081	49	1629.0890004607
96	321702	50	1638.931136799
96	340323	51	1649.0108467368
96	358944	52	1660.7939602928
96	379735	53	1673.1984514399
96	400366	54	1680.4633362051
96	420837	55	1686.5077071395
96	443278	56	1690.9668973042
96	465479	57	1693.9904241981
96	487520	58	1694.3948899265
96	511491	59	1694.6096980488
96	535142	60	1694.7011740645
96	558473	61	1694.7532659015
96	583976	62	1694.7532659061
96	608957	63	1694.7532659061
96	634645	64	1694.7532659061
96	661236	65	1694.7532659061
96	687747	66	1694.7532659061
96	714018	67	1694.7532659061
96	742579	68	1694.7532659061
96	771140	69	1694.7532659061
96	799461	70	1694.7532659061
96	830273	71	1694.7532659061
96	861324	72	1694.7632751269
96	892215	73	1694.8310923334
96	925796	74	1695.0447191307
96	959697	75	1695.4746399457
96	993598	76	1695.9369944464
96	1030309	77	1696.3943697363
96	1067020	78	1696.7667119829
96	1103731	79	1697.1512914244
96	1143372	80	1697.5488840612
96	1183013	81	1697.8896767553
96	1222654	82	1698.2561831558
96	1264699	83	1698.6257843599
96	1307150	84	1699.0297768936
96	1348891	85	1699.4171411674
96	1393806	86	1699.8544881837
96	1438199	87	1700.2447503516
96	1482250	88	1700.708779267
96	1529186	89	1700.9989404734
96	1575681	90	1702.5280671809
96	1621960	91	1710.2472090675
96	1670681	92	1720.1425273791
96	1718362	93	1731.9907559287
96	1765723	94	1745.4954072116
96	1815334	95	1759.3283329457
96	1864545	96	1773.2472112086
96	1913190	97	1787.1312482422
96	1964767	98	1801.0378242526
96	2015621	99	1814.9222442498
96	2066160	100	1828.802247609
95	170952	40	2414.8643638575
95	183783	41	2414.8643638575
95	196614	42	2411.9505358023
95	209445	43	2407.318565644
95	224086	44	2402.4864640692
95	238727	45	2396.2721230768
95	253368	46	2388.6278213484
95	269939	47	2379.6268894839
95	286510	48	2369.9299933589
95	303081	49	2360.2300260144
95	321702	50	2350.5128739657
95	340323	51	2341.0808279288
95	358944	52	2334.6037538053
95	379735	53	2337.2186781653
95	400366	54	2346.1107894138
95	420837	55	2352.8131658367
95	443278	56	2357.757794708
95	465479	57	2361.1128380458
95	487520	58	2363.8188660757
95	511491	59	2365.2560133021
95	535142	60	2365.868022297
95	558473	61	2366.2165363004
95	583976	62	2366.2165363306
95	608957	63	2366.2165363306
95	634645	64	2366.2165363306
95	661236	65	2366.2165363306
95	687747	66	2366.2165363306
95	714018	67	2366.2165363306
95	742579	68	2366.2165363306
95	771140	69	2366.2165363306
95	799461	70	2366.2165363306
95	830273	71	2366.2165363306
95	861324	72	2366.2835017926
95	892215	73	2366.7372244364
95	925796	74	2368.1664681565
95	959697	75	2371.0428003039
95	993598	76	2374.1361260242
95	1030309	77	2377.2207314491
95	1067020	78	2380.3490712125
95	1103731	79	2383.5802252687
95	1143372	80	2387.0269815848
95	1183013	81	2390.6310918544
95	1222654	82	2394.5071417433
95	1264699	83	2398.4159212461
95	1307150	84	2402.6884120093
95	1348891	85	2406.7850478309
95	1393806	86	2411.4102845342
95	1438199	87	2415.5375675189
95	1482250	88	2420.4449831052
95	1529186	89	2424.3767027918
95	1575681	90	2429.9232604632
95	1621960	91	2431.5841541145
95	1670681	92	2433.0878856801
95	1718362	93	2434.8883891817
95	1765723	94	2436.9406092092
95	1815334	95	2438.51766201
95	1864545	96	2439.3748701797
95	1913190	97	2440.3844735355
95	1964767	98	2441.3957158544
95	2015621	99	2442.4053470581
95	2066160	100	2443.4146570978
106	238727	45	4.4034312115859
106	253368	46	4.9409243458172
106	269939	47	6.3832082208906
106	286510	48	7.1089208794337
106	303081	49	9.3557538393233
106	321702	50	2.0624192104549
106	340323	51	1.6343928938989
106	358944	52	2.3363767696765
106	379735	53	2.014836051081
106	400366	54	1.9114520263016
106	420837	55	0.973
106	443278	56	0.973
106	465479	57	0.973
106	487520	58	0.973
106	511491	59	0.973
106	535142	60	0.973
106	558473	61	0.973
106	583976	62	0.973
106	608957	63	0.973
106	634645	64	0.973
106	661236	65	0.973
106	687747	66	0.973
106	714018	67	0.973
106	742579	68	0.973
106	771140	69	0.973
106	799461	70	0.973
106	830273	71	1.1334008367406
106	861324	72	1.152812662294
106	892215	73	1.3204999081111
106	925796	74	1.9196005019005
106	959697	75	1.4590889119414
106	993598	76	1.4210666438692
106	1030309	77	1.351159835584
106	1067020	78	1.421753954162
106	1103731	79	1.376082373707
106	1143372	80	1.387796243932
106	1183013	81	1.5489047803847
106	1222654	82	1.3752268591528
106	1264699	83	1.6358841577271
106	1307150	84	1.308102012038
106	1348891	85	1.6312296692023
106	1393806	86	0.973
106	1438199	87	1.721428780148
106	1482250	88	0.973
106	1529186	89	1.834768735255
106	1575681	90	0.973
106	1621960	91	5.4804559111092
106	1670681	92	6.1089929438732
106	1718362	93	7.2010056654632
106	1765723	94	7.6947212298503
106	1815334	95	5.7975289142314
106	1864545	96	2.0364291311522
106	1913190	97	2.0207339302026
106	1964767	98	2.0366347883308
106	2015621	99	1.8368782568617
106	2066160	100	2.1932003191281
105	238727	45	2.0679704127321
105	253368	46	1.8137746056402
105	269939	47	1.9960560980276
105	286510	48	1.8791225285758
105	303081	49	2.1928086002986
105	321702	50	0.010671503645574
105	340323	51	-0.11475160704926
105	358944	52	0.093356438223273
105	379735	53	-0.0028218990401356
105	400366	54	-0.032860382387881
105	420837	55	-2.095325720558
105	443278	56	-2.3177774501968
105	465479	57	-2.3439752683094
105	487520	58	-2.1407635859369
105	511491	59	-1.885162362011
105	535142	60	-1.2854255975948
105	558473	61	-1.0245833404635
105	583976	62	-0.28902517110587
105	608957	63	-0.44209195149393
105	634645	64	-2.5259251600222e-09
105	661236	65	0
105	687747	66	0
105	714018	67	0
105	742579	68	0
105	771140	69	0
105	799461	70	0
105	830273	71	0.22719520724856
105	861324	72	0.20797917305887
105	892215	73	0.62402793502479
105	925796	74	1.2515639639438
105	959697	75	0.3429695341776
105	993598	76	0.2423075478561
105	1030309	77	0.12730837714831
105	1067020	78	0.19748736293462
105	1103731	79	0.12547931549568
105	1143372	80	0.1270703328709
105	1183013	81	0.2796854581982
105	1222654	82	0.081220460334369
105	1264699	83	0.31865484621071
105	1307150	84	-0.0084166505606937
105	1348891	85	0.28102816670521
105	1393806	86	-0.18270547394779
105	1438199	87	0.34478486108796
105	1482250	88	-0.26766573992307
105	1529186	89	0.42499853681888
105	1575681	90	-0.29017469595592
105	1621960	91	2.4196869834489
105	1670681	92	2.0843929383624
105	1718362	93	2.0493021412496
105	1765723	94	1.8596774257207
105	1815334	95	1.1158111016681
105	1864545	96	-0.0002144523267642
105	1913190	97	-0.0047296342975454
105	1964767	98	-9.4138272110911e-06
105	2015621	99	-0.05779048534343
105	2066160	100	0.046834348877892
104	224086	44	3.9208041515302
104	238727	45	5.9887745642623
104	253368	46	7.8025491699025
104	269939	47	9.7986052679301
104	286510	48	11.677727796506
104	303081	49	13.870536396805
104	321702	50	13.88120790045
104	340323	51	13.766456293401
104	358944	52	13.859812731624
104	379735	53	13.856990832584
104	400366	54	13.824130450196
104	420837	55	11.728804729638
104	443278	56	9.4110272794413
104	465479	57	7.0670520111319
104	487520	58	4.9262884251949
104	511491	59	3.041126063184
104	535142	60	1.7557004655892
104	558473	61	0.73111712512573
104	583976	62	0.44209195401985
104	608957	63	2.5259251600222e-09
104	634645	64	0
104	661236	65	0
104	687747	66	0
104	714018	67	0
104	742579	68	0
104	771140	69	0
104	799461	70	0
104	830273	71	0.22719520724856
104	861324	72	0.43517438030744
104	892215	73	1.0592023153322
104	925796	74	2.310766279276
104	959697	75	2.6537358134536
104	993598	76	2.8960433613097
104	1030309	77	3.023351738458
104	1067020	78	3.2208391013926
104	1103731	79	3.3463184168883
104	1143372	80	3.4733887497592
104	1183013	81	3.7530742079574
104	1222654	82	3.8342946682918
104	1264699	83	4.1529495145025
104	1307150	84	4.1445328639418
104	1348891	85	4.425561030647
104	1393806	86	4.2428555566992
104	1438199	87	4.5876404177872
104	1482250	88	4.3199746778641
104	1529186	89	4.744973214683
104	1575681	90	4.4547985187271
104	1621960	91	6.874485502176
104	1670681	92	8.9588784405384
104	1718362	93	11.008180581788
104	1765723	94	12.867858007509
104	1815334	95	13.983669109177
104	1864545	96	13.98345465685
104	1913190	97	13.978725022553
104	1964767	98	13.978715608725
104	2015621	99	13.920925123382
104	2066160	100	13.96775947226
103	209445	43	1578.4516069954
103	224086	44	1578.4516069954
103	238727	45	1579.491546276
103	253368	46	1581.3594150469
103	269939	47	1586.3330652174
103	286510	48	1592.6600734163
103	303081	49	1600.3512183102
103	321702	50	1609.5131604262
103	340323	51	1619.3417800386
103	358944	52	1629.1747293454
103	379735	53	1639.02362133
103	400366	54	1649.0999420043
103	420837	55	1660.9148708517
103	443278	56	1672.8268116917
103	465479	57	1679.3962963512
103	487520	58	1684.7975204978
103	511491	59	1688.7372671682
103	535142	60	1691.3166408762
103	558473	61	1692.8583344566
103	583976	62	1693.6154149855
103	608957	63	1693.9543370614
103	634645	64	1694.0138950795
103	661236	65	1694.0138950795
103	687747	66	1694.0138950795
103	714018	67	1694.0138950795
103	742579	68	1694.0138950795
103	771140	69	1694.0138950795
103	799461	70	1694.0138950795
103	830273	71	1694.0138950795
103	861324	72	1694.0172540378
103	892215	73	1694.0820181277
103	925796	74	1694.1708770813
103	959697	75	1694.4390279297
[...]
64	1348891	85	1.9953369160475
64	1393806	86	2.3103491515068
64	1438199	87	1.8789762816038
64	1482250	88	2.04501573419
64	1529186	89	1.7718207896297
64	1575681	90	2.2792385560268
64	1621960	91	1.9661287278596
64	1670681	92	2.0776422202181
64	1718362	93	1.8597198859372
64	1765723	94	2.2888825708785
64	1815334	95	1.8879527630828
64	1864545	96	1.9913860792349
64	1913190	97	1.9329103487052
64	1964767	98	1.9339112417102
64	2015621	99	2.31972705528
64	2066160	100	1.7629589949083
63	57719	27	2.1138846719917
63	63300	28	2.0727092925669
63	70091	29	1.7554983190075
63	76882	30	2.0193968206551
63	83673	31	1.6831018927133
63	91864	32	0.019019715432078
63	99985	33	0.012927869681734
63	108816	34	0.050400855510961
63	118387	35	-0.063409320448992
63	127958	36	0.066438733455726
63	137529	37	0.0012081693904467
63	148670	38	-0.035331751874182
63	159811	39	0.034946637486573
63	170952	40	-0.039879146455787
63	183783	41	0.036232952666468
63	196614	42	-0.023783565051854
63	209445	43	0.035576899871231
63	224086	44	-0.10512697171653
63	238727	45	0.024903657031246
63	253368	46	0.0083919294737278
63	269939	47	0.030036963683086
63	286510	48	-0.0063123587868166
63	303081	49	-0.031606168886647
63	321702	50	-0.018345551032107
63	340323	51	-0.010971383841243
63	358944	52	0.052309213562403
63	379735	53	0.042288719676435
63	400366	54	-0.029168089642189
63	420837	55	0.032982175336219
63	443278	56	0.00086244890466425
63	465479	57	-0.1024601256894
63	487520	58	-0.0041755886026653
63	511491	59	0.031598577736876
63	535142	60	-1.4262213058461
63	558473	61	-2.5330888098239
63	583976	62	-1.379277560679
63	608957	63	-1.4731781625695
63	634645	64	-2.5942719928214
63	661236	65	0.21650169840578
63	687747	66	2.1094569457881
63	714018	67	1.9110741475038
63	742579	68	1.7495939007238
63	771140	69	1.8648875028756
63	799461	70	1.5500555684046
63	830273	71	0.0093221881357017
63	861324	72	0.0031735018966721
63	892215	73	-0.0041956050018772
63	925796	74	0.050488341455347
63	959697	75	-0.053305505402387
63	993598	76	0.031922094295734
63	1030309	77	0.048984600543044
63	1067020	78	0.0044299750542276
63	1103731	79	-0.047090314470697
63	1143372	80	0.013500420071651
63	1183013	81	-0.0099166977661671
63	1222654	82	-0.059371381283272
63	1264699	83	0.051979816418607
63	1307150	84	-0.041384718732443
63	1348891	85	-0.0066067902953364
63	1393806	86	0.085075297348668
63	1438199	87	-0.042779665342533
63	1482250	88	0.0068244753940956
63	1529186	89	-0.073266989684198
63	1575681	90	0.076929314190057
63	1621960	91	-0.016458095293492
63	1670681	92	0.016491501128767
63	1718362	93	-0.047560706117656
63	1765723	94	0.078695343616419
63	1815334	95	-0.040128496889958
63	1864545	96	-0.0088373191002749
63	1913190	97	-0.025659335926175
63	1964767	98	-0.024654242519755
63	2015621	99	0.088323924834841
63	2066160	100	-0.076452446375043
62	52138	26	4.1465123397463
62	57719	27	6.260397011738
62	63300	28	8.3331063043048
62	70091	29	10.088604623312
62	76882	30	12.108001443967
62	83673	31	13.791103336681
62	91864	32	13.810123052113
62	99985	33	13.823050921794
62	108816	34	13.873451777305
62	118387	35	13.810042456856
62	127958	36	13.876481190312
62	137529	37	13.877689359703
62	148670	38	13.842357607828
62	159811	39	13.877304245315
62	170952	40	13.837425098859
62	183783	41	13.873658051526
62	196614	42	13.849874486474
62	209445	43	13.885451386345
62	224086	44	13.780324414629
62	238727	45	13.80522807166
62	253368	46	13.813620001134
62	269939	47	13.843656964817
62	286510	48	13.83734460603
62	303081	49	13.805738437143
62	321702	50	13.787392886111
62	340323	51	13.77642150227
62	358944	52	13.828730715832
62	379735	53	13.871019435509
62	400366	54	13.841851345866
62	420837	55	13.874833521203
62	443278	56	13.875695970107
62	465479	57	13.773235844418
62	487520	58	13.769060255815
62	511491	59	13.800658833552
62	535142	60	12.374437527706
62	558473	61	9.8413487178821
62	583976	62	8.4620711572031
62	608957	63	6.9888929946336
62	634645	64	4.3946210018122
62	661236	65	4.611122700218
62	687747	66	6.7205796460061
62	714018	67	8.6316537935099
62	742579	68	10.381247694234
62	771140	69	12.246135197109
62	799461	70	13.796190765514
62	830273	71	13.80551295365
62	861324	72	13.808686455546
62	892215	73	13.804490850545
62	925796	74	13.854979192
62	959697	75	13.801673686597
62	993598	76	13.833595780893
62	1030309	77	13.882580381436
62	1067020	78	13.887010356491
62	1103731	79	13.83992004202
62	1143372	80	13.853420462091
62	1183013	81	13.843503764325
62	1222654	82	13.784132383042
62	1264699	83	13.836112199461
62	1307150	84	13.794727480728
62	1348891	85	13.788120690433
62	1393806	86	13.873195987782
62	1438199	87	13.830416322439
62	1482250	88	13.837240797833
62	1529186	89	13.763973808149
62	1575681	90	13.840903122339
62	1621960	91	13.824445027045
62	1670681	92	13.840936528174
62	1718362	93	13.793375822057
62	1765723	94	13.872071165673
62	1815334	95	13.831942668783
62	1864545	96	13.823105349683
62	1913190	97	13.797446013757
62	1964767	98	13.772791771237
62	2015621	99	13.861115696072
62	2066160	100	13.784663249697
61	46557	25	1578.4528582916
61	52138	26	1578.4528582916
61	57719	27	1579.5611792998
61	63300	28	1581.6999518033
61	70091	29	1586.9496366791
61	76882	30	1593.5647228472
61	83673	31	1601.5542278206
61	91864	32	1611.0171096297
61	99985	33	1620.8627806399
61	108816	34	1630.700787154
61	118387	35	1640.5517980391
61	127958	36	1650.8187824385
61	137529	37	1663.0718472237
61	148670	38	1666.3173326571
61	159811	39	1670.3318906287
61	170952	40	1679.843289407
61	183783	41	1689.3952704659
61	196614	42	1698.9566728882
61	209445	43	1708.5110768089
61	224086	44	1718.0696163876
61	238727	45	1727.6246863324
61	253368	46	1737.1892582309
61	269939	47	1746.7373120664
61	286510	48	1756.3000753876
61	303081	49	1765.8744157832
61	321702	50	1775.4245071206
61	340323	51	1784.9749133782
61	358944	52	1794.521549942
61	379735	53	1804.063361505
61	400366	54	1813.6135052275
61	420837	55	1823.1765603982
61	443278	56	1832.7259044396
61	465479	57	1842.2969586793
61	487520	58	1851.8585609095
61	511491	59	1861.4095478477
61	535142	60	1870.9594226237
61	558473	61	1880.2125813132
61	583976	62	1887.7937287698
61	608957	63	1893.8836190309
61	634645	64	1899.3880594186
61	661236	65	1903.1641785922
61	687747	66	1905.8475854471
61	714018	67	1908.0008631786
61	742579	68	1902.5444262391
61	771140	69	1895.669132703
61	799461	70	1887.4859449873
61	830273	71	1878.0407638857
61	861324	72	1868.1379312435
61	892215	73	1856.0467196219
61	925796	74	1843.7470986294
61	959697	75	1830.2244566986
61	993598	76	1816.3919742797
61	1030309	77	1802.5713813528
61	1067020	78	1788.7469380256
61	1103731	79	1774.9124717759
61	1143372	80	1761.9636691688
61	1183013	81	1749.54899575
61	1222654	82	1737.1064965036
61	1264699	83	1724.6836933158
61	1307150	84	1714.0946633155
61	1348891	85	1703.8354159603
61	1393806	86	1693.4581376128
61	1438199	87	1683.9107731143
61	1482250	88	1674.3628633972
61	1529186	89	1664.8017509812
61	1575681	90	1655.2502234448
61	1621960	91	1645.7116738465
61	1670681	92	1636.1599366535
61	1718362	93	1626.6273921775
61	1765723	94	1617.086957667
61	1815334	95	1607.5298882341
61	1864545	96	1597.9844423933
61	1913190	97	1588.4331004005
61	1964767	98	1578.8900484499
61	2015621	99	1569.3442464182
61	2066160	100	1559.8070056755
60	46557	25	2414.8707945519
60	52138	26	2414.8707945519
60	57719	27	2411.852448253
60	63300	28	2407.0172859571
60	70091	29	2401.8342662961
60	76882	30	2395.3031844351
60	83673	31	2387.4151373734
60	91864	32	2378.0724237398
60	99985	33	2368.3517819048
60	108816	34	2358.6387072358
60	118387	35	2348.9127933375
60	127958	36	2339.6685498889
60	137529	37	2334.2255173136
60	148670	38	2323.0448926789
60	159811	39	2309.874559966
60	170952	40	2299.8391771014
60	183783	41	2289.8556556297
60	196614	42	2279.8622871552
60	209445	43	2269.8748116177
60	224086	44	2259.8806615118
60	238727	45	2249.8877044788
60	253368	46	2239.8865068206
60	269939	47	2229.9085541177
60	286510	48	2219.9152296385
60	303081	49	2209.9081932298
60	321702	50	2199.9264425271
60	340323	51	2189.94436267
60	358944	52	2179.9619234077
60	379735	53	2169.9817553535
60	400366	54	2159.9928723547
60	420837	55	2149.9952733888
60	443278	56	2140.0121937415
60	465479	57	2130.0064178093
60	487520	58	2120.0105232018
60	511491	59	2110.0257260374
60	535142	60	2100.0420915504
60	558473	61	2090.368650131
60	583976	62	2082.4431634643
60	608957	63	2076.0766675819
60	634645	64	2070.3222129769
60	661236	65	2066.3745807306
60	687747	66	2063.5692923
60	714018	67	2058.6282526586
60	742579	68	2053.0747348355
60	771140	69	2046.3755980293
60	799461	70	2038.4020775189
60	830273	71	2029.1988980436
60	861324	72	2019.5497928393
60	892215	73	2012.969991654
60	925796	74	2006.6058445988
60	959697	75	2005.2308262193
60	993598	76	2005.0822558264
60	1030309	77	2004.933813135
60	1067020	78	2004.7853290875
60	1103731	79	2004.6367373869
60	1143372	80	2000.8288336038
60	1183013	81	1994.7542841511
60	1222654	82	1988.66611941
60	1264699	83	1982.5917027702
60	1307150	84	1973.8046448214
60	1348891	85	1964.5636533293
60	1393806	86	1963.3319346955
60	1438199	87	1973.3427076003
60	1482250	88	1983.3540521878
60	1529186	89	1993.3792403035
60	1575681	90	2003.3855461719
60	1621960	91	2013.3851973081
60	1670681	92	2023.3986735374
60	1718362	93	2033.3941914255
60	1765723	94	2043.3975845686
60	1815334	95	2053.418085989
60	1864545	96	2063.4264001768
60	1913190	97	2073.4402931553
60	1964767	98	2083.4447288897
60	2015621	99	2093.4528165315
60	2066160	100	2103.4522143139
71	76882	30	4.325995731492
71	83673	31	5.3720304881905
71	91864	32	5.7757712544019
71	99985	33	6.5791764694172
71	108816	34	7.6935276587406
71	118387	35	3.8502611265587
71	127958	36	2.0764993798037
71	137529	37	1.5888740515004
71	148670	38	2.3104732102819
71	159811	39	2.0119455084832
71	170952	40	1.7376521350599
71	183783	41	2.4111897102237
71	196614	42	1.9739322061681
71	209445	43	1.9414131925686
71	224086	44	2.0936430920556
71	238727	45	1.8431720030553
71	253368	46	1.9261531812452
71	269939	47	2.116791157404
71	286510	48	2.051565970649
71	303081	49	1.9384949454161
71	321702	50	2.3047477171077
71	340323	51	1.9453911040859
71	358944	52	1.7597743269792
71	379735	53	1.9873744001456
71	400366	54	2.0589673540535
71	420837	55	2.2634959073934
71	443278	56	1.7854826881828
71	465479	57	2.2697912788778
71	487520	58	1.7762993827295
71	511491	59	2.2982840115098
71	535142	60	1.8141554135547
71	558473	61	2.3015475468791
71	583976	62	1.6195548991705
71	608957	63	0.973
71	634645	64	0.973
71	661236	65	0.973
71	687747	66	0.973
71	714018	67	0.973
71	742579	68	0.973
71	771140	69	5.2076020310864
71	799461	70	5.6628617543388
71	830273	71	7.0090561586849
71	861324	72	8.2109153037088
71	892215	73	5.6181352907947
71	925796	74	2.1570824000118
71	959697	75	1.8257440253236
71	993598	76	2.2359797028331
71	1030309	77	1.9575312806428
71	1067020	78	1.7865076048846
71	1103731	79	2.2531602509554
71	1143372	80	1.895950797739
71	1183013	81	2.053873940583
71	1222654	82	2.000742669605
71	1264699	83	2.1646422963875
71	1307150	84	1.9060026086844
71	1348891	85	1.9612941761007
71	1393806	86	2.1684980209952
71	1438199	87	2.0515756324422
71	1482250	88	1.878411671205
71	1529186	89	2.1930667571968
71	1575681	90	1.9098847262061
71	1621960	91	2.021462325524
71	1670681	92	1.8827427551078
71	1718362	93	2.1415493883817
71	1765723	94	1.985605504181
71	1815334	95	2.2087065084374
71	1864545	96	2.0559830831949
71	1913190	97	1.6663580010425
71	1964767	98	2.3443818987638
71	2015621	99	2.0578398495396
71	2066160	100	1.8370443121402
70	76882	30	1.9568191743502
70	83673	31	1.9572691578092
70	91864	32	1.7314382667607
70	99985	33	1.713887941076
70	108816	34	1.7811930986517
70	118387	35	0.5455487020282
70	127958	36	0.014625610450748
70	137529	37	-0.12835575377569
70	148670	38	0.086069189966656
70	159811	39	-0.0032880703615952
70	170952	40	-0.08347737324657
70	183783	41	0.11515046443325
70	196614	42	-0.015165489669888
70	209445	43	-0.02420829517534
70	224086	44	0.020781896163243
70	238727	45	-0.052820707375648
70	253368	46	-0.027107878297102
70	269939	47	0.029354151599108
70	286510	48	0.0094572953344336
70	303081	49	-0.023820380757098
70	321702	50	0.083326840666123
70	340323	51	-0.023466067190748
70	358944	52	-0.07716132091824
70	379735	53	-0.0083518194314092
70	400366	54	0.01282586012967
70	420837	55	0.071853914731181
70	443278	56	-0.069587787266354
70	465479	57	0.073596738330089
70	487520	58	-0.072383246980609
70	511491	59	0.081788608145434
70	535142	60	-0.061512108491733
70	558473	61	0.082020465955139
70	583976	62	-0.11920585321263
70	608957	63	-1.1028148490823
70	634645	64	-2.6553926580168
70	661236	65	-1.7284570103476
70	687747	66	-0.95897031236175
70	714018	67	-2.6923715729839
70	742579	68	-0.25108375047185
70	771140	69	2.321188584019
70	799461	70	1.954556805715
70	830273	71	2.0443137953267
70	861324	72	2.0492480860208
70	892215	73	1.0795783457336
70	925796	74	0.039508969287853
70	959697	75	-0.058132671224884
70	993598	76	0.062952348960097
70	1030309	77	-0.019778141782153
70	1067020	78	-0.069263658991551
70	1103731	79	0.068806886908133
70	1143372	80	-0.037186459258665
70	1183013	81	0.0099460376123908
70	1222654	82	-0.0058291377825661
70	1264699	83	0.04198842071928
70	1307150	84	-0.034490730764809
70	1348891	85	-0.01738849772839
70	1393806	86	0.04342608335428
70	1438199	87	0.0081444856501189
70	1482250	88	-0.042544198287651
70	1529186	89	0.050247515393421
70	1575681	90	-0.033558291657828
70	1621960	91	-8.4873696323484e-05
70	1670681	92	-0.040586052429862
70	1718362	93	0.036087216865271
70	1765723	94	-0.010400071199983
70	1815334	95	0.054715775966178
70	1864545	96	0.0087614968325944
70	1913190	97	-0.10532111897832
70	1964767	98	0.095344136075582
70	2015621	99	0.0093364321580154
70	2066160	100	-0.055214643005748
69	70091	29	4.1885270936726
69	76882	30	6.1453462680228
69	83673	31	8.102615425832
69	91864	32	9.8340536925927
69	99985	33	11.547941633669
69	108816	34	13.32913473232
69	118387	35	13.874683434349
69	127958	36	13.889309044799
69	137529	37	13.760953291024
69	148670	38	13.84702248099
69	159811	39	13.843734410629
69	170952	40	13.760257037382
69	183783	41	13.875407501815
69	196614	42	13.860242012145
69	209445	43	13.83603371697
69	224086	44	13.856815613133
69	238727	45	13.803994905758
69	253368	46	13.776887027461
69	269939	47	13.80624117906
69	286510	48	13.815698474394
69	303081	49	13.791878093637
69	321702	50	13.875204934303
69	340323	51	13.851738867112
69	358944	52	13.774577546194
69	379735	53	13.766225726763
69	400366	54	13.779051586892
69	420837	55	13.850905501624
69	443278	56	13.781317714357
69	465479	57	13.854914452687
69	487520	58	13.782531205707
69	511491	59	13.864319813852
69	535142	60	13.80280770536
69	558473	61	13.884828171316
69	583976	62	13.765622318103
69	608957	63	12.662807469021
69	634645	64	10.007414811004
69	661236	65	8.2789578006563
69	687747	66	7.3199874882945
69	714018	67	4.6276159153106
69	742579	68	4.3765321648388
69	771140	69	6.6977207488577
69	799461	70	8.6522775545727
69	830273	71	10.696591349899
69	861324	72	12.74583943592
69	892215	73	13.825417781654
69	925796	74	13.864926750942
69	959697	75	13.806794079717
69	993598	76	13.869746428677
69	1030309	77	13.849968286895
69	1067020	78	13.780704627903
69	1103731	79	13.849511514811
69	1143372	80	13.812325055553
69	1183013	81	13.822271093165
69	1222654	82	13.816441955382
69	1264699	83	13.858430376102
69	1307150	84	13.823939645337
69	1348891	85	13.806551147609
69	1393806	86	13.849977230963
69	1438199	87	13.858121716613
69	1482250	88	13.815577518325
69	1529186	89	13.865825033719
69	1575681	90	13.832266742061
69	1621960	91	13.832181868365
69	1670681	92	13.791595815935
69	1718362	93	13.8276830328
69	1765723	94	13.8172829616
69	1815334	95	13.871998737566
69	1864545	96	13.880760234399
69	1913190	97	13.77543911542
69	1964767	98	13.870783251496
69	2015621	99	13.880119683654
69	2066160	100	13.824905040648
68	63300	28	1578.4646326732
68	70091	29	1578.4646326732
68	76882	30	1579.5986517062
68	83673	31	1581.7423672481
68	91864	32	1586.9080099538
68	99985	33	1593.3719751006
68	108816	34	1601.0871393541
68	118387	35	1610.0351614747
68	127958	36	1619.8598473864
68	137529	37	1629.6911440864
68	148670	38	1639.530417718
68	159811	39	1649.6739925323
68	170952	40	1661.6279815631
68	183783	41	1666.4667181065
68	196614	42	1669.8679969469
68	209445	43	1678.8102071146
68	224086	44	1688.3764733179
68	238727	45	1697.9330717055
68	253368	46	1707.5003947932
68	269939	47	1717.0430460712
68	286510	48	1726.6176441507
68	303081	49	1736.1894871369
68	321702	50	1745.7432697145
68	340323	51	1755.2890583128
68	358944	52	1764.8326946516
68	379735	53	1774.3940270394
68	400366	54	1783.9500465048
68	420837	55	1793.4896119284
68	443278	56	1803.0603179308
68	465479	57	1812.6100488855
68	487520	58	1822.1667056531
68	511491	59	1831.7091283128
68	535142	60	1841.2700737016
68	558473	61	1850.8319491623
68	583976	62	1860.3924606508
68	608957	63	1869.9406652693
68	634645	64	1879.2742262119
68	661236	65	1887.027135022
68	687747	66	1893.1559163257
68	714018	67	1898.706118199
68	742579	68	1902.7307448154
68	771140	69	1905.4508290542
68	799461	70	1908.2371551795
68	830273	71	1903.0216026558
68	861324	72	1895.9971843688
68	892215	73	1887.55351419
68	925796	74	1877.8239663793
68	959697	75	1867.9136722153
68	993598	76	1855.7487374237
68	1030309	77	1843.4726831866
68	1067020	78	1829.8880724777
68	1103731	79	1816.056190853
68	1143372	80	1802.2332965024
68	1183013	81	1788.4100540625
68	1222654	82	1774.5555473454
68	1264699	83	1761.6347793909
68	1307150	84	1749.2001449615
68	1348891	85	1736.7908598268
68	1393806	86	1724.3777094427
68	1438199	87	1713.8538028756
68	1482250	88	1703.5642687548
68	1529186	89	1693.2046062769
68	1575681	90	1683.6552988682
68	1621960	91	1674.1051008087
68	1670681	92	1664.5617596144
68	1718362	93	1655.0124391802
68	1765723	94	1645.4781359844
68	1815334	95	1635.936425101
68	1864545	96	1626.3877267549
68	1913190	97	1616.8408064507
68	1964767	98	1607.3109549209
68	2015621	99	1597.7723351698
68	2066160	100	1588.2266886374
67	63300	28	2414.8387287854
67	70091	29	2414.8387287854
67	76882	30	2411.7503977651
67	83673	31	2406.9754091416
67	91864	32	2401.8753644078
67	99985	33	2395.4934844975
67	108816	34	2387.8762943314
67	118387	35	2379.0419022342
67	127958	36	2369.3419790111
67	137529	37	2359.6355289492
67	148670	38	2349.9212032534
67	159811	39	2340.5628082656
67	170952	40	2334.465267002
67	183783	41	2324.4901100461
67	196614	42	2311.2684766441
67	209445	43	2300.9189320954
67	224086	44	2290.9204801036
67	238727	45	2280.932132701
67	253368	46	2270.9315533608
67	269939	47	2260.9540156323
67	286510	48	2250.9409738799
67	303081	49	2240.9312923714
67	321702	50	2230.9473529913
67	340323	51	2220.9717675182
67	358944	52	2210.996999637
67	379735	53	2201.0034997939
67	400366	54	2191.0155530152
67	420837	55	2181.0412692671
67	443278	56	2171.0308793453
67	465479	57	2161.0424280777
67	487520	58	2151.0509962016
67	511491	59	2141.075152309
67	535142	60	2131.0799443761
67	558473	61	2121.0837641272
67	583976	62	2111.0890098029
67	608957	63	2101.1071213325
67	634645	64	2091.3496257523
67	661236	65	2083.2445762533
67	687747	66	2076.8374228799
67	714018	67	2071.0351282804
67	742579	68	2066.8277012691
67	771140	69	2063.9840695518
67	799461	70	2059.3206867074
67	830273	71	2053.5396851797
67	861324	72	2046.6952444522
67	892215	73	2038.4679154843
67	925796	74	2028.9876552579
67	959697	75	2019.3312797089
67	993598	76	2012.8158078354
67	1030309	77	2006.463854839
67	1067020	78	2005.227213221
67	1103731	79	2005.0786492811
67	1143372	80	2004.9301818707
67	1183013	81	2004.7817107217
67	1222654	82	2004.6329037726
67	1264699	83	2000.6679065173
67	1307150	84	1994.5835900626
67	1348891	85	1988.5116771191
67	1393806	86	1982.4420906258
67	1438199	87	1973.587690381
67	1482250	88	1964.3194181599
67	1529186	89	1963.597771894
67	1575681	90	1973.6105820134
67	1621960	91	1983.6243260136
67	1670681	92	1993.6308803322
67	1718362	93	2003.6348251286
67	1765723	94	2013.630024587
67	1815334	95	2023.6329898274
67	1864545	96	2033.6454962285
67	1913190	97	2043.6556719076
67	1964767	98	2053.6476356002
67	2015621	99	2063.6487926944
67	2066160	100	2073.6566844338
