version 2
run WithoutChannelSwitching-slotted-0-20180208-04:36:52-9635
attr configname WithoutChannelSwitching-slotted
attr datetime 20180208-04:36:52
attr experiment WithoutChannelSwitching-slotted
attr inifile omnetpp.ini
attr iterationvars ""
attr iterationvarsf ""
attr measurement ""
attr network Scenario2
attr processid 9635
attr repetition 0
attr replication #0
attr resultdir results
attr runnumber 0
attr seedset 0
param **.coreDebug false
param **.debug false
param *.**.nic.mac1609_4.bitrate 6Mbps
param *.**.nic.mac1609_4.txPower 20mW
param *.**.nic.mac1609_4.useServiceChannel false
param *.**.nic.phy80211p.analogueModels "xmldoc(\"config.xml\")"
param *.**.nic.phy80211p.antenna "xmldoc(\"antenna.xml\", \"/root/Antenna[@id='monopole']\")"
param *.**.nic.phy80211p.collectCollisionStatistics true
param *.**.nic.phy80211p.decider "xmldoc(\"config.xml\")"
param *.**.nic.phy80211p.sensitivity -89dBm
param *.**.nic.phy80211p.thermalNoise -110dBm
param *.**.nic.phy80211p.usePropagationDelay true
param *.**.nic.phy80211p.useThermalNoise true
param *.annotations.draw true
param *.connectionManager.drawMaxIntfDist false
param *.connectionManager.maxInterfDist 2600m
param *.connectionManager.sendDirect true
param *.manager.autoShutdown true
param *.manager.host "\"localhost\""
param *.manager.launchConfig "xmldoc(\"mycross.launchd.xml\")"
param *.manager.port 9999
param *.manager.updateInterval 1s
param *.node[*].appl.Slotted1Enabled true
param *.node[*].appl.Slotted_Ns 1
param *.node[*].appl.Slotted_R 500
param *.node[*].appl.Slotted_tau 0.005
param *.node[*].appl.beaconInterval 1s
param *.node[*].appl.dataOnSch false
param *.node[*].appl.headerLength "80 bit"
param *.node[*].appl.sendBeacons true
param *.node[*].applType "\"myWaveAppLayer\""
param *.node[*].veinsmobility.x 0
param *.node[*].veinsmobility.y 0
param *.node[*].veinsmobility.z 1.895
param *.node[*].veinsmobilityType.debug true
param *.node[20].appl.Accident_start 30
param *.node[40].veinsmobility.accidentCount 1
param *.node[40].veinsmobility.accidentDuration 40s
param *.node[40].veinsmobility.accidentStart 30s
param *.obstacles.debug false
param *.playgroundSizeX 2500m
param *.playgroundSizeY 2500m
param *.playgroundSizeZ 50m
param *.rsu[*].appl.beaconInterval 0.1s
param *.rsu[*].appl.beaconUserPriority 7
param *.rsu[*].appl.dataOnSch false
param *.rsu[*].appl.dataUserPriority 5
param *.rsu[*].appl.headerLength "80 bit"
param *.rsu[*].appl.sendBeacons false
param *.rsu[*].applType "\"TraCIDemoRSU11p\""
param *.rsu[0].mobility.x 500
param *.rsu[0].mobility.y 500
param *.rsu[0].mobility.z 3

scalar Scenario2.node[18].appl 	generatedWSMs 	0
scalar Scenario2.node[18].appl 	receivedWSMs 	6
scalar Scenario2.node[18].appl 	generatedBSMs 	33
scalar Scenario2.node[18].appl 	receivedBSMs 	2397
scalar Scenario2.node[18].appl 	generatedWSAs 	0
scalar Scenario2.node[18].appl 	receivedWSAs 	0
scalar Scenario2.node[18].appl 	delayWSM 	2.054446587777
scalar Scenario2.node[18].appl 	Dist_Propa 	572.20044959714
scalar Scenario2.node[18].nic.phy80211p 	busyTime 	0.0076751515151514
scalar Scenario2.node[18].nic.phy80211p 	ncollisions 	19
scalar Scenario2.node[18].nic.mac1609_4 	ReceivedUnicastPackets 	0
scalar Scenario2.node[18].nic.mac1609_4 	ReceivedBroadcasts 	2403
scalar Scenario2.node[18].nic.mac1609_4 	SentPackets 	33
scalar Scenario2.node[18].nic.mac1609_4 	SNIRLostPackets 	25
scalar Scenario2.node[18].nic.mac1609_4 	RXTXLostPackets 	0
scalar Scenario2.node[18].nic.mac1609_4 	TotalLostPackets 	25
scalar Scenario2.node[18].nic.mac1609_4 	DroppedPacketsInMac 	0
scalar Scenario2.node[18].nic.mac1609_4 	TooLittleTime 	0
scalar Scenario2.node[18].nic.mac1609_4 	TimesIntoBackoff 	33
scalar Scenario2.node[18].nic.mac1609_4 	SlotsBackoff 	56
scalar Scenario2.node[18].nic.mac1609_4 	NumInternalContention 	0
scalar Scenario2.node[18].nic.mac1609_4 	totalBusyTime 	0.256121
scalar Scenario2.node[18].veinsmobility 	startTime 	1
scalar Scenario2.node[18].veinsmobility 	totalTime 	32
scalar Scenario2.node[18].veinsmobility 	stopTime 	34
scalar Scenario2.node[18].veinsmobility 	minSpeed 	2.6377290236039
scalar Scenario2.node[18].veinsmobility 	maxSpeed 	18.998816868074
scalar Scenario2.node[18].veinsmobility 	totalDistance 	522.11524646103
scalar Scenario2.node[18].veinsmobility 	totalCO2Emission 	121.58310432878
scalar Scenario2.node[72].appl 	generatedWSMs 	0
scalar Scenario2.node[72].appl 	receivedWSMs 	0
scalar Scenario2.node[72].appl 	generatedBSMs 	32
scalar Scenario2.node[72].appl 	receivedBSMs 	2264
scalar Scenario2.node[72].appl 	generatedWSAs 	0
scalar Scenario2.node[72].appl 	receivedWSAs 	0
scalar Scenario2.node[72].appl 	delayWSM 	-1
scalar Scenario2.node[72].appl 	Dist_Propa 	-1
scalar Scenario2.node[72].nic.phy80211p 	busyTime 	0.0074327499999999
scalar Scenario2.node[72].nic.phy80211p 	ncollisions 	17
scalar Scenario2.node[72].nic.mac1609_4 	ReceivedUnicastPackets 	0
scalar Scenario2.node[72].nic.mac1609_4 	ReceivedBroadcasts 	2264
scalar Scenario2.node[72].nic.mac1609_4 	SentPackets 	32
scalar Scenario2.node[72].nic.mac1609_4 	SNIRLostPackets 	23
scalar Scenario2.node[72].nic.mac1609_4 	RXTXLostPackets 	0
scalar Scenario2.node[72].nic.mac1609_4 	TotalLostPackets 	23
scalar Scenario2.node[72].nic.mac1609_4 	DroppedPacketsInMac 	0
scalar Scenario2.node[72].nic.mac1609_4 	TooLittleTime 	0
scalar Scenario2.node[72].nic.mac1609_4 	TimesIntoBackoff 	32
scalar Scenario2.node[72].nic.mac1609_4 	SlotsBackoff 	49
scalar Scenario2.node[72].nic.mac1609_4 	NumInternalContention 	0
scalar Scenario2.node[72].nic.mac1609_4 	totalBusyTime 	0.240584
scalar Scenario2.node[72].veinsmobility 	startTime 	3
scalar Scenario2.node[72].veinsmobility 	totalTime 	31
scalar Scenario2.node[72].veinsmobility 	stopTime 	35
scalar Scenario2.node[72].veinsmobility 	minSpeed 	4.160416336859
scalar Scenario2.node[72].veinsmobility 	maxSpeed 	18.998247401568
scalar Scenario2.node[72].veinsmobility 	totalDistance 	514.99453362875
scalar Scenario2.node[72].veinsmobility 	totalCO2Emission 	118.9178712817
scalar Scenario2.node[19].appl 	generatedWSMs 	1
scalar Scenario2.node[19].appl 	receivedWSMs 	30
scalar Scenario2.node[19].appl 	generatedBSMs 	35
scalar Scenario2.node[19].appl 	receivedBSMs 	2637
scalar Scenario2.node[19].appl 	generatedWSAs 	0
scalar Scenario2.node[19].appl 	receivedWSAs 	0
scalar Scenario2.node[19].appl 	delayWSM 	2.03095610525
scalar Scenario2.node[19].appl 	Dist_Propa 	593.97664727412
scalar Scenario2.node[19].nic.phy80211p 	busyTime 	0.0081087999999998
scalar Scenario2.node[19].nic.phy80211p 	ncollisions 	19
scalar Scenario2.node[19].nic.mac1609_4 	ReceivedUnicastPackets 	0
scalar Scenario2.node[19].nic.mac1609_4 	ReceivedBroadcasts 	2667
scalar Scenario2.node[19].nic.mac1609_4 	SentPackets 	36
scalar Scenario2.node[19].nic.mac1609_4 	SNIRLostPackets 	25
scalar Scenario2.node[19].nic.mac1609_4 	RXTXLostPackets 	0
scalar Scenario2.node[19].nic.mac1609_4 	TotalLostPackets 	25
scalar Scenario2.node[19].nic.mac1609_4 	DroppedPacketsInMac 	0
scalar Scenario2.node[19].nic.mac1609_4 	TooLittleTime 	0
scalar Scenario2.node[19].nic.mac1609_4 	TimesIntoBackoff 	36
scalar Scenario2.node[19].nic.mac1609_4 	SlotsBackoff 	36
scalar Scenario2.node[19].nic.mac1609_4 	NumInternalContention 	0
scalar Scenario2.node[19].nic.mac1609_4 	totalBusyTime 	0.287092
scalar Scenario2.node[19].veinsmobility 	startTime 	1
scalar Scenario2.node[19].veinsmobility 	totalTime 	34
scalar Scenario2.node[19].veinsmobility 	stopTime 	36
scalar Scenario2.node[19].veinsmobility 	minSpeed 	2.7469869994252
scalar Scenario2.node[19].veinsmobility 	maxSpeed 	18.980967045685
scalar Scenario2.node[19].veinsmobility 	totalDistance 	552.79239116376
scalar Scenario2.node[19].veinsmobility 	totalCO2Emission 	125.79905284345
scalar Scenario2.node[81].appl 	generatedWSMs 	1
scalar Scenario2.node[81].appl 	receivedWSMs 	30
scalar Scenario2.node[81].appl 	generatedBSMs 	32
scalar Scenario2.node[81].appl 	receivedBSMs 	2514
scalar Scenario2.node[81].appl 	generatedWSAs 	0
scalar Scenario2.node[81].appl 	receivedWSAs 	0
scalar Scenario2.node[81].appl 	delayWSM 	2.030956085713
scalar Scenario2.node[81].appl 	Dist_Propa 	602.78761667352
scalar Scenario2.node[81].nic.phy80211p 	busyTime 	0.0084464999999998
scalar Scenario2.node[81].nic.phy80211p 	ncollisions 	15
scalar Scenario2.node[81].nic.mac1609_4 	ReceivedUnicastPackets 	0
scalar Scenario2.node[81].nic.mac1609_4 	ReceivedBroadcasts 	2544
scalar Scenario2.node[81].nic.mac1609_4 	SentPackets 	33
scalar Scenario2.node[81].nic.mac1609_4 	SNIRLostPackets 	18
scalar Scenario2.node[81].nic.mac1609_4 	RXTXLostPackets 	0
scalar Scenario2.node[81].nic.mac1609_4 	TotalLostPackets 	18
scalar Scenario2.node[81].nic.mac1609_4 	DroppedPacketsInMac 	0
scalar Scenario2.node[81].nic.mac1609_4 	TooLittleTime 	0
scalar Scenario2.node[81].nic.mac1609_4 	TimesIntoBackoff 	33
scalar Scenario2.node[81].nic.mac1609_4 	SlotsBackoff 	52
scalar Scenario2.node[81].nic.mac1609_4 	NumInternalContention 	0
scalar Scenario2.node[81].nic.mac1609_4 	totalBusyTime 	0.273569
scalar Scenario2.node[81].veinsmobility 	startTime 	4
scalar Scenario2.node[81].veinsmobility 	totalTime 	31
scalar Scenario2.node[81].veinsmobility 	stopTime 	36
scalar Scenario2.node[81].veinsmobility 	minSpeed 	2.9169091988617
scalar Scenario2.node[81].veinsmobility 	maxSpeed 	18.976269957249
scalar Scenario2.node[81].veinsmobility 	totalDistance 	505.13364217523
scalar Scenario2.node[81].veinsmobility 	totalCO2Emission 	119.23000791163
scalar Scenario2.node[33].appl 	generatedWSMs 	1
scalar Scenario2.node[33].appl 	receivedWSMs 	33
scalar Scenario2.node[33].appl 	generatedBSMs 	36
scalar Scenario2.node[33].appl 	receivedBSMs 	2882
scalar Scenario2.node[33].appl 	generatedWSAs 	0
scalar Scenario2.node[33].appl 	receivedWSAs 	0
scalar Scenario2.node[33].appl 	delayWSM 	2.030956023957
scalar Scenario2.node[33].appl 	Dist_Propa 	619.93492653942
scalar Scenario2.node[33].nic.phy80211p 	busyTime 	0.0086135555555553
scalar Scenario2.node[33].nic.phy80211p 	ncollisions 	19
scalar Scenario2.node[33].nic.mac1609_4 	ReceivedUnicastPackets 	0
scalar Scenario2.node[33].nic.mac1609_4 	ReceivedBroadcasts 	2915
scalar Scenario2.node[33].nic.mac1609_4 	SentPackets 	37
scalar Scenario2.node[33].nic.mac1609_4 	SNIRLostPackets 	26
scalar Scenario2.node[33].nic.mac1609_4 	RXTXLostPackets 	0
scalar Scenario2.node[33].nic.mac1609_4 	TotalLostPackets 	26
scalar Scenario2.node[33].nic.mac1609_4 	DroppedPacketsInMac 	0
scalar Scenario2.node[33].nic.mac1609_4 	TooLittleTime 	0
scalar Scenario2.node[33].nic.mac1609_4 	TimesIntoBackoff 	37
scalar Scenario2.node[33].nic.mac1609_4 	SlotsBackoff 	51
scalar Scenario2.node[33].nic.mac1609_4 	NumInternalContention 	0
scalar Scenario2.node[33].nic.mac1609_4 	totalBusyTime 	0.313373
scalar Scenario2.node[33].veinsmobility 	startTime 	1
scalar Scenario2.node[33].veinsmobility 	totalTime 	35
scalar Scenario2.node[33].veinsmobility 	stopTime 	37
scalar Scenario2.node[33].veinsmobility 	minSpeed 	0.7030855698499
scalar Scenario2.node[33].veinsmobility 	maxSpeed 	18.994416443501
scalar Scenario2.node[33].veinsmobility 	totalDistance 	543.99849859273
scalar Scenario2.node[33].veinsmobility 	totalCO2Emission 	128.19238520245
scalar Scenario2.node[24].appl 	generatedWSMs 	1
scalar Scenario2.node[24].appl 	receivedWSMs 	33
scalar Scenario2.node[24].appl 	generatedBSMs 	36
scalar Scenario2.node[24].appl 	receivedBSMs 	2889
scalar Scenario2.node[24].appl 	generatedWSAs 	0
scalar Scenario2.node[24].appl 	receivedWSAs 	0
scalar Scenario2.node[24].appl 	delayWSM 	2.030956010133
scalar Scenario2.node[24].appl 	Dist_Propa 	233.66865508551
scalar Scenario2.node[24].nic.phy80211p 	busyTime 	0.0086308888888887
scalar Scenario2.node[24].nic.phy80211p 	ncollisions 	19
scalar Scenario2.node[24].nic.mac1609_4 	ReceivedUnicastPackets 	0
scalar Scenario2.node[24].nic.mac1609_4 	ReceivedBroadcasts 	2922
scalar Scenario2.node[24].nic.mac1609_4 	SentPackets 	37
scalar Scenario2.node[24].nic.mac1609_4 	SNIRLostPackets 	25
scalar Scenario2.node[24].nic.mac1609_4 	RXTXLostPackets 	0
scalar Scenario2.node[24].nic.mac1609_4 	TotalLostPackets 	25
scalar Scenario2.node[24].nic.mac1609_4 	DroppedPacketsInMac 	0
scalar Scenario2.node[24].nic.mac1609_4 	TooLittleTime 	0
scalar Scenario2.node[24].nic.mac1609_4 	TimesIntoBackoff 	37
scalar Scenario2.node[24].nic.mac1609_4 	SlotsBackoff 	67
scalar Scenario2.node[24].nic.mac1609_4 	NumInternalContention 	0
scalar Scenario2.node[24].nic.mac1609_4 	totalBusyTime 	0.314101
scalar Scenario2.node[24].veinsmobility 	startTime 	1
scalar Scenario2.node[24].veinsmobility 	totalTime 	35
scalar Scenario2.node[24].veinsmobility 	stopTime 	37
scalar Scenario2.node[24].veinsmobility 	minSpeed 	2.8351305318164
scalar Scenario2.node[24].veinsmobility 	maxSpeed 	18.986858689971
scalar Scenario2.node[24].veinsmobility 	totalDistance 	519.79892566372
scalar Scenario2.node[24].veinsmobility 	totalCO2Emission 	125.60350843403
scalar Scenario2.node[38].appl 	generatedWSMs 	1
scalar Scenario2.node[38].appl 	receivedWSMs 	35
scalar Scenario2.node[38].appl 	generatedBSMs 	37
scalar Scenario2.node[38].appl 	receivedBSMs 	3131
scalar Scenario2.node[38].appl 	generatedWSAs 	0
scalar Scenario2.node[38].appl 	receivedWSAs 	0
scalar Scenario2.node[38].appl 	delayWSM 	2.03095594829
scalar Scenario2.node[38].appl 	Dist_Propa 	644.08585895939
scalar Scenario2.node[38].nic.phy80211p 	busyTime 	0.0090988108108106
scalar Scenario2.node[38].nic.phy80211p 	ncollisions 	18
scalar Scenario2.node[38].nic.mac1609_4 	ReceivedUnicastPackets 	0
scalar Scenario2.node[38].nic.mac1609_4 	ReceivedBroadcasts 	3166
scalar Scenario2.node[38].nic.mac1609_4 	SentPackets 	38
scalar Scenario2.node[38].nic.mac1609_4 	SNIRLostPackets 	28
scalar Scenario2.node[38].nic.mac1609_4 	RXTXLostPackets 	0
scalar Scenario2.node[38].nic.mac1609_4 	TotalLostPackets 	28
scalar Scenario2.node[38].nic.mac1609_4 	DroppedPacketsInMac 	0
scalar Scenario2.node[38].nic.mac1609_4 	TooLittleTime 	0
scalar Scenario2.node[38].nic.mac1609_4 	TimesIntoBackoff 	38
scalar Scenario2.node[38].nic.mac1609_4 	SlotsBackoff 	64
scalar Scenario2.node[38].nic.mac1609_4 	NumInternalContention 	0
scalar Scenario2.node[38].nic.mac1609_4 	totalBusyTime 	0.339734
scalar Scenario2.node[38].veinsmobility 	startTime 	1
scalar Scenario2.node[38].veinsmobility 	totalTime 	36
scalar Scenario2.node[38].veinsmobility 	stopTime 	38
scalar Scenario2.node[38].veinsmobility 	minSpeed 	3.8436146157379
scalar Scenario2.node[38].veinsmobility 	maxSpeed 	18.956129539851
scalar Scenario2.node[38].veinsmobility 	totalDistance 	572.52570590264
scalar Scenario2.node[38].veinsmobility 	totalCO2Emission 	127.13910885386
scalar Scenario2.node[77].appl 	generatedWSMs 	1
scalar Scenario2.node[77].appl 	receivedWSMs 	2
scalar Scenario2.node[77].appl 	generatedBSMs 	35
scalar Scenario2.node[77].appl 	receivedBSMs 	2847
scalar Scenario2.node[77].appl 	generatedWSAs 	0
scalar Scenario2.node[77].appl 	receivedWSAs 	0
scalar Scenario2.node[77].appl 	delayWSM 	2.11104951141
scalar Scenario2.node[77].appl 	Dist_Propa 	672.65342414155
scalar Scenario2.node[77].nic.phy80211p 	busyTime 	0.0085620571428569
scalar Scenario2.node[77].nic.phy80211p 	ncollisions 	14
scalar Scenario2.node[77].nic.mac1609_4 	ReceivedUnicastPackets 	0
scalar Scenario2.node[77].nic.mac1609_4 	ReceivedBroadcasts 	2849
scalar Scenario2.node[77].nic.mac1609_4 	SentPackets 	36
scalar Scenario2.node[77].nic.mac1609_4 	SNIRLostPackets 	30
scalar Scenario2.node[77].nic.mac1609_4 	RXTXLostPackets 	0
scalar Scenario2.node[77].nic.mac1609_4 	TotalLostPackets 	30
scalar Scenario2.node[77].nic.mac1609_4 	DroppedPacketsInMac 	0
scalar Scenario2.node[77].nic.mac1609_4 	TooLittleTime 	0
scalar Scenario2.node[77].nic.mac1609_4 	TimesIntoBackoff 	36
scalar Scenario2.node[77].nic.mac1609_4 	SlotsBackoff 	56
scalar Scenario2.node[77].nic.mac1609_4 	NumInternalContention 	0
scalar Scenario2.node[77].nic.mac1609_4 	totalBusyTime 	0.301916
scalar Scenario2.node[77].veinsmobility 	startTime 	3
scalar Scenario2.node[77].veinsmobility 	totalTime 	34
scalar Scenario2.node[77].veinsmobility 	stopTime 	38
scalar Scenario2.node[77].veinsmobility 	minSpeed 	2.469303570089
scalar Scenario2.node[77].veinsmobility 	maxSpeed 	18.989598316788
scalar Scenario2.node[77].veinsmobility 	totalDistance 	534.6176752236
scalar Scenario2.node[77].veinsmobility 	totalCO2Emission 	125.29924590028
scalar Scenario2.node[78].appl 	generatedWSMs 	1
scalar Scenario2.node[78].appl 	receivedWSMs 	35
scalar Scenario2.node[78].appl 	generatedBSMs 	35
scalar Scenario2.node[78].appl 	receivedBSMs 	3016
scalar Scenario2.node[78].appl 	generatedWSAs 	0
scalar Scenario2.node[78].appl 	receivedWSAs 	0
scalar Scenario2.node[78].appl 	delayWSM 	2.030955934743
scalar Scenario2.node[78].appl 	Dist_Propa 	644.48892228551
scalar Scenario2.node[78].nic.phy80211p 	busyTime 	0.009256914285714
scalar Scenario2.node[78].nic.phy80211p 	ncollisions 	16
scalar Scenario2.node[78].nic.mac1609_4 	ReceivedUnicastPackets 	0
scalar Scenario2.node[78].nic.mac1609_4 	ReceivedBroadcasts 	3051
scalar Scenario2.node[78].nic.mac1609_4 	SentPackets 	36
scalar Scenario2.node[78].nic.mac1609_4 	SNIRLostPackets 	20
scalar Scenario2.node[78].nic.mac1609_4 	RXTXLostPackets 	0
scalar Scenario2.node[78].nic.mac1609_4 	TotalLostPackets 	20
scalar Scenario2.node[78].nic.mac1609_4 	DroppedPacketsInMac 	0
scalar Scenario2.node[78].nic.mac1609_4 	TooLittleTime 	0
scalar Scenario2.node[78].nic.mac1609_4 	TimesIntoBackoff 	36
scalar Scenario2.node[78].nic.mac1609_4 	SlotsBackoff 	65
scalar Scenario2.node[78].nic.mac1609_4 	NumInternalContention 	0
scalar Scenario2.node[78].nic.mac1609_4 	totalBusyTime 	0.327484
scalar Scenario2.node[78].veinsmobility 	startTime 	3
scalar Scenario2.node[78].veinsmobility 	totalTime 	34
scalar Scenario2.node[78].veinsmobility 	stopTime 	38
scalar Scenario2.node[78].veinsmobility 	minSpeed 	1.6589710813337
scalar Scenario2.node[78].veinsmobility 	maxSpeed 	18.915644339598
scalar Scenario2.node[78].veinsmobility 	totalDistance 	513.35441316521
scalar Scenario2.node[78].veinsmobility 	totalCO2Emission 	122.34261446111
scalar Scenario2.node[23].appl 	generatedWSMs 	1
scalar Scenario2.node[23].appl 	receivedWSMs 	8
scalar Scenario2.node[23].appl 	generatedBSMs 	38
scalar Scenario2.node[23].appl 	receivedBSMs 	3157
scalar Scenario2.node[23].appl 	generatedWSAs 	0
scalar Scenario2.node[23].appl 	receivedWSAs 	0
scalar Scenario2.node[23].appl 	delayWSM 	2.04601941994
scalar Scenario2.node[23].appl 	Dist_Propa 	230.62857219433
scalar Scenario2.node[23].nic.phy80211p 	busyTime 	0.0087909473684208
scalar Scenario2.node[23].nic.phy80211p 	ncollisions 	17
scalar Scenario2.node[23].nic.mac1609_4 	ReceivedUnicastPackets 	0
scalar Scenario2.node[23].nic.mac1609_4 	ReceivedBroadcasts 	3165
scalar Scenario2.node[23].nic.mac1609_4 	SentPackets 	39
scalar Scenario2.node[23].nic.mac1609_4 	SNIRLostPackets 	36
scalar Scenario2.node[23].nic.mac1609_4 	RXTXLostPackets 	0
scalar Scenario2.node[23].nic.mac1609_4 	TotalLostPackets 	36
scalar Scenario2.node[23].nic.mac1609_4 	DroppedPacketsInMac 	0
scalar Scenario2.node[23].nic.mac1609_4 	TooLittleTime 	0
scalar Scenario2.node[23].nic.mac1609_4 	TimesIntoBackoff 	39
scalar Scenario2.node[23].nic.mac1609_4 	SlotsBackoff 	66
scalar Scenario2.node[23].nic.mac1609_4 	NumInternalContention 	0
scalar Scenario2.node[23].nic.mac1609_4 	totalBusyTime 	0.336303
scalar Scenario2.node[23].veinsmobility 	startTime 	1
scalar Scenario2.node[23].veinsmobility 	totalTime 	37
scalar Scenario2.node[23].veinsmobility 	stopTime 	39
scalar Scenario2.node[23].veinsmobility 	minSpeed 	3.9197721995389
scalar Scenario2.node[23].veinsmobility 	maxSpeed 	18.958762100481
scalar Scenario2.node[23].veinsmobility 	totalDistance 	551.2990211723
scalar Scenario2.node[23].veinsmobility 	totalCO2Emission 	129.27981560609
scalar Scenario2.node[99].appl 	generatedWSMs 	1
scalar Scenario2.node[99].appl 	receivedWSMs 	36
scalar Scenario2.node[99].appl 	generatedBSMs 	32
scalar Scenario2.node[99].appl 	receivedBSMs 	2945
scalar Scenario2.node[99].appl 	generatedWSAs 	0
scalar Scenario2.node[99].appl 	receivedWSAs 	0
scalar Scenario2.node[99].appl 	delayWSM 	2.030955859134
scalar Scenario2.node[99].appl 	Dist_Propa 	667.43912328254
scalar Scenario2.node[99].nic.phy80211p 	busyTime 	0.0099109999999998
scalar Scenario2.node[99].nic.phy80211p 	ncollisions 	12
scalar Scenario2.node[99].nic.mac1609_4 	ReceivedUnicastPackets 	0
scalar Scenario2.node[99].nic.mac1609_4 	ReceivedBroadcasts 	2981
scalar Scenario2.node[99].nic.mac1609_4 	SentPackets 	33
scalar Scenario2.node[99].nic.mac1609_4 	SNIRLostPackets 	23
scalar Scenario2.node[99].nic.mac1609_4 	RXTXLostPackets 	0
scalar Scenario2.node[99].nic.mac1609_4 	TotalLostPackets 	23
scalar Scenario2.node[99].nic.mac1609_4 	DroppedPacketsInMac 	0
scalar Scenario2.node[99].nic.mac1609_4 	TooLittleTime 	0
scalar Scenario2.node[99].nic.mac1609_4 	TimesIntoBackoff 	33
scalar Scenario2.node[99].nic.mac1609_4 	SlotsBackoff 	43
scalar Scenario2.node[99].nic.mac1609_4 	NumInternalContention 	0
scalar Scenario2.node[99].nic.mac1609_4 	totalBusyTime 	0.319601
scalar Scenario2.node[99].veinsmobility 	startTime 	7
scalar Scenario2.node[99].veinsmobility 	totalTime 	31
scalar Scenario2.node[99].veinsmobility 	stopTime 	39
scalar Scenario2.node[99].veinsmobility 	minSpeed 	3.4495017279335
scalar Scenario2.node[99].veinsmobility 	maxSpeed 	18.97233216234
scalar Scenario2.node[99].veinsmobility 	totalDistance 	505.89978518668
scalar Scenario2.node[99].veinsmobility 	totalCO2Emission 	118.34030555927
scalar Scenario2.node[43].appl 	generatedWSMs 	1
scalar Scenario2.node[43].appl 	receivedWSMs 	47
scalar Scenario2.node[43].appl 	generatedBSMs 	39
scalar Scenario2.node[43].appl 	receivedBSMs 	3508
scalar Scenario2.node[43].appl 	generatedWSAs 	0
scalar Scenario2.node[43].appl 	receivedWSAs 	0
scalar Scenario2.node[43].appl 	delayWSM 	2.015482837698
scalar Scenario2.node[43].appl 	Dist_Propa 	247.55048834718
scalar Scenario2.node[43].nic.phy80211p 	busyTime 	0.0097308717948715
scalar Scenario2.node[43].nic.phy80211p 	ncollisions 	17
scalar Scenario2.node[43].nic.mac1609_4 	ReceivedUnicastPackets 	0
scalar Scenario2.node[43].nic.mac1609_4 	ReceivedBroadcasts 	3555
scalar Scenario2.node[43].nic.mac1609_4 	SentPackets 	40
scalar Scenario2.node[43].nic.mac1609_4 	SNIRLostPackets 	35
scalar Scenario2.node[43].nic.mac1609_4 	RXTXLostPackets 	0
scalar Scenario2.node[43].nic.mac1609_4 	TotalLostPackets 	35
scalar Scenario2.node[43].nic.mac1609_4 	DroppedPacketsInMac 	0
scalar Scenario2.node[43].nic.mac1609_4 	TooLittleTime 	0
scalar Scenario2.node[43].nic.mac1609_4 	TimesIntoBackoff 	40
scalar Scenario2.node[43].nic.mac1609_4 	SlotsBackoff 	53
scalar Scenario2.node[43].nic.mac1609_4 	NumInternalContention 	0
scalar Scenario2.node[43].nic.mac1609_4 	totalBusyTime 	0.38196
scalar Scenario2.node[43].veinsmobility 	startTime 	1
scalar Scenario2.node[43].veinsmobility 	totalTime 	38
scalar Scenario2.node[43].veinsmobility 	stopTime 	40
scalar Scenario2.node[43].veinsmobility 	minSpeed 	0.93985029414634
scalar Scenario2.node[43].veinsmobility 	maxSpeed 	18.998235099297
scalar Scenario2.node[43].veinsmobility 	totalDistance 	533.08445200913
scalar Scenario2.node[43].veinsmobility 	totalCO2Emission 	131.64580719256
scalar Scenario2.node[97].appl 	generatedWSMs 	1
scalar Scenario2.node[97].appl 	receivedWSMs 	47
scalar Scenario2.node[97].appl 	generatedBSMs 	34
scalar Scenario2.node[97].appl 	receivedBSMs 	3448
scalar Scenario2.node[97].appl 	generatedWSAs 	0
scalar Scenario2.node[97].appl 	receivedWSAs 	0
scalar Scenario2.node[97].appl 	delayWSM 	2.011999635349
scalar Scenario2.node[97].appl 	Dist_Propa 	256.06860208709
scalar Scenario2.node[97].nic.phy80211p 	busyTime 	0.010954588235294
scalar Scenario2.node[97].nic.phy80211p 	ncollisions 	13
scalar Scenario2.node[97].nic.mac1609_4 	ReceivedUnicastPackets 	0
scalar Scenario2.node[97].nic.mac1609_4 	ReceivedBroadcasts 	3495
scalar Scenario2.node[97].nic.mac1609_4 	SentPackets 	35
scalar Scenario2.node[97].nic.mac1609_4 	SNIRLostPackets 	26
scalar Scenario2.node[97].nic.mac1609_4 	RXTXLostPackets 	0
scalar Scenario2.node[97].nic.mac1609_4 	TotalLostPackets 	26
scalar Scenario2.node[97].nic.mac1609_4 	DroppedPacketsInMac 	0
scalar Scenario2.node[97].nic.mac1609_4 	TooLittleTime 	0
scalar Scenario2.node[97].nic.mac1609_4 	TimesIntoBackoff 	35
scalar Scenario2.node[97].nic.mac1609_4 	SlotsBackoff 	63
scalar Scenario2.node[97].nic.mac1609_4 	NumInternalContention 	0
scalar Scenario2.node[97].nic.mac1609_4 	totalBusyTime 	0.374907
scalar Scenario2.node[97].veinsmobility 	startTime 	6
scalar Scenario2.node[97].veinsmobility 	totalTime 	33
scalar Scenario2.node[97].veinsmobility 	stopTime 	40
scalar Scenario2.node[97].veinsmobility 	minSpeed 	2.0811592944059
scalar Scenario2.node[97].veinsmobility 	maxSpeed 	18.985642932095
scalar Scenario2.node[97].veinsmobility 	totalDistance 	537.06051774556
scalar Scenario2.node[97].veinsmobility 	totalCO2Emission 	124.01651426989
scalar Scenario2.node[87].appl 	generatedWSMs 	1
scalar Scenario2.node[87].appl 	receivedWSMs 	53
scalar Scenario2.node[87].appl 	generatedBSMs 	36
scalar Scenario2.node[87].appl 	receivedBSMs 	3382
scalar Scenario2.node[87].appl 	generatedWSAs 	0
scalar Scenario2.node[87].appl 	receivedWSAs 	0
scalar Scenario2.node[87].appl 	delayWSM 	2.01548281154
scalar Scenario2.node[87].appl 	Dist_Propa 	255.11074005652
scalar Scenario2.node[87].nic.phy80211p 	busyTime 	0.010190444444444
scalar Scenario2.node[87].nic.phy80211p 	ncollisions 	12
scalar Scenario2.node[87].nic.mac1609_4 	ReceivedUnicastPackets 	0
scalar Scenario2.node[87].nic.mac1609_4 	ReceivedBroadcasts 	3435
scalar Scenario2.node[87].nic.mac1609_4 	SentPackets 	37
scalar Scenario2.node[87].nic.mac1609_4 	SNIRLostPackets 	26
scalar Scenario2.node[87].nic.mac1609_4 	RXTXLostPackets 	0
scalar Scenario2.node[87].nic.mac1609_4 	TotalLostPackets 	26
scalar Scenario2.node[87].nic.mac1609_4 	DroppedPacketsInMac 	0
scalar Scenario2.node[87].nic.mac1609_4 	TooLittleTime 	0
scalar Scenario2.node[87].nic.mac1609_4 	TimesIntoBackoff 	37
scalar Scenario2.node[87].nic.mac1609_4 	SlotsBackoff 	53
scalar Scenario2.node[87].nic.mac1609_4 	NumInternalContention 	0
scalar Scenario2.node[87].nic.mac1609_4 	totalBusyTime 	0.369413
scalar Scenario2.node[87].veinsmobility 	startTime 	5
scalar Scenario2.node[87].veinsmobility 	totalTime 	35
scalar Scenario2.node[87].veinsmobility 	stopTime 	41
scalar Scenario2.node[87].veinsmobility 	minSpeed 	1.5977305046032
scalar Scenario2.node[87].veinsmobility 	maxSpeed 	18.996921987447
scalar Scenario2.node[87].veinsmobility 	totalDistance 	533.65184389026
scalar Scenario2.node[87].veinsmobility 	totalCO2Emission 	127.08622532585
scalar Scenario2.node[65].appl 	generatedWSMs 	1
scalar Scenario2.node[65].appl 	receivedWSMs 	65
scalar Scenario2.node[65].appl 	generatedBSMs 	39
scalar Scenario2.node[65].appl 	receivedBSMs 	3693
scalar Scenario2.node[65].appl 	generatedWSAs 	0
scalar Scenario2.node[65].appl 	receivedWSAs 	0
scalar Scenario2.node[65].appl 	delayWSM 	2.015482762403
scalar Scenario2.node[65].appl 	Dist_Propa 	264.4234662672
scalar Scenario2.node[65].nic.phy80211p 	busyTime 	0.010323282051282
scalar Scenario2.node[65].nic.phy80211p 	ncollisions 	14
scalar Scenario2.node[65].nic.mac1609_4 	ReceivedUnicastPackets 	0
scalar Scenario2.node[65].nic.mac1609_4 	ReceivedBroadcasts 	3758
scalar Scenario2.node[65].nic.mac1609_4 	SentPackets 	40
scalar Scenario2.node[65].nic.mac1609_4 	SNIRLostPackets 	32
scalar Scenario2.node[65].nic.mac1609_4 	RXTXLostPackets 	0
scalar Scenario2.node[65].nic.mac1609_4 	TotalLostPackets 	32
scalar Scenario2.node[65].nic.mac1609_4 	DroppedPacketsInMac 	0
scalar Scenario2.node[65].nic.mac1609_4 	TooLittleTime 	0
scalar Scenario2.node[65].nic.mac1609_4 	TimesIntoBackoff 	40
scalar Scenario2.node[65].nic.mac1609_4 	SlotsBackoff 	65
scalar Scenario2.node[65].nic.mac1609_4 	NumInternalContention 	0
scalar Scenario2.node[65].nic.mac1609_4 	totalBusyTime 	0.405064
scalar Scenario2.node[65].veinsmobility 	startTime 	2
scalar Scenario2.node[65].veinsmobility 	totalTime 	38
scalar Scenario2.node[65].veinsmobility 	stopTime 	41
scalar Scenario2.node[65].veinsmobility 	minSpeed 	2.7004654792201
scalar Scenario2.node[65].veinsmobility 	maxSpeed 	18.952788990605
scalar Scenario2.node[65].veinsmobility 	totalDistance 	542.46622928497
scalar Scenario2.node[65].veinsmobility 	totalCO2Emission 	129.04066945565
scalar Scenario2.node[86].appl 	generatedWSMs 	1
scalar Scenario2.node[86].appl 	receivedWSMs 	65
scalar Scenario2.node[86].appl 	generatedBSMs 	36
scalar Scenario2.node[86].appl 	receivedBSMs 	3736
scalar Scenario2.node[86].appl 	generatedWSAs 	0
scalar Scenario2.node[86].appl 	receivedWSAs 	0
scalar Scenario2.node[86].appl 	delayWSM 	2.011999559385
scalar Scenario2.node[86].appl 	Dist_Propa 	277.70801401319
scalar Scenario2.node[86].nic.phy80211p 	busyTime 	0.011302666666666
scalar Scenario2.node[86].nic.phy80211p 	ncollisions 	15
scalar Scenario2.node[86].nic.mac1609_4 	ReceivedUnicastPackets 	0
scalar Scenario2.node[86].nic.mac1609_4 	ReceivedBroadcasts 	3801
scalar Scenario2.node[86].nic.mac1609_4 	SentPackets 	37
scalar Scenario2.node[86].nic.mac1609_4 	SNIRLostPackets 	29
scalar Scenario2.node[86].nic.mac1609_4 	RXTXLostPackets 	0
scalar Scenario2.node[86].nic.mac1609_4 	TotalLostPackets 	29
scalar Scenario2.node[86].nic.mac1609_4 	DroppedPacketsInMac 	0
scalar Scenario2.node[86].nic.mac1609_4 	TooLittleTime 	0
scalar Scenario2.node[86].nic.mac1609_4 	TimesIntoBackoff 	37
scalar Scenario2.node[86].nic.mac1609_4 	SlotsBackoff 	41
scalar Scenario2.node[86].nic.mac1609_4 	NumInternalContention 	0
scalar Scenario2.node[86].nic.mac1609_4 	totalBusyTime 	0.409453
scalar Scenario2.node[86].veinsmobility 	startTime 	5
scalar Scenario2.node[86].veinsmobility 	totalTime 	35
scalar Scenario2.node[86].veinsmobility 	stopTime 	41
scalar Scenario2.node[86].veinsmobility 	minSpeed 	2.8531540664863
scalar Scenario2.node[86].veinsmobility 	maxSpeed 	18.998548358157
scalar Scenario2.node[86].veinsmobility 	totalDistance 	576.58382063838
scalar Scenario2.node[86].veinsmobility 	totalCO2Emission 	128.79870530879
scalar Scenario2.node[69].appl 	generatedWSMs 	1
scalar Scenario2.node[69].appl 	receivedWSMs 	69
scalar Scenario2.node[69].appl 	generatedBSMs 	40
scalar Scenario2.node[69].appl 	receivedBSMs 	3790
scalar Scenario2.node[69].appl 	generatedWSAs 	0
scalar Scenario2.node[69].appl 	receivedWSAs 	0
scalar Scenario2.node[69].appl 	delayWSM 	2.01548273644
scalar Scenario2.node[69].appl 	Dist_Propa 	274.71725377702
scalar Scenario2.node[69].nic.phy80211p 	busyTime 	0.0103406
scalar Scenario2.node[69].nic.phy80211p 	ncollisions 	14
scalar Scenario2.node[69].nic.mac1609_4 	ReceivedUnicastPackets 	0
scalar Scenario2.node[69].nic.mac1609_4 	ReceivedBroadcasts 	3859
scalar Scenario2.node[69].nic.mac1609_4 	SentPackets 	41
scalar Scenario2.node[69].nic.mac1609_4 	SNIRLostPackets 	32
scalar Scenario2.node[69].nic.mac1609_4 	RXTXLostPackets 	0
scalar Scenario2.node[69].nic.mac1609_4 	TotalLostPackets 	32
scalar Scenario2.node[69].nic.mac1609_4 	DroppedPacketsInMac 	0
scalar Scenario2.node[69].nic.mac1609_4 	TooLittleTime 	0
scalar Scenario2.node[69].nic.mac1609_4 	TimesIntoBackoff 	41
scalar Scenario2.node[69].nic.mac1609_4 	SlotsBackoff 	60
scalar Scenario2.node[69].nic.mac1609_4 	NumInternalContention 	0
scalar Scenario2.node[69].nic.mac1609_4 	totalBusyTime 	0.416185
scalar Scenario2.node[69].veinsmobility 	startTime 	2
scalar Scenario2.node[69].veinsmobility 	totalTime 	39
scalar Scenario2.node[69].veinsmobility 	stopTime 	42
scalar Scenario2.node[69].veinsmobility 	minSpeed 	1.8372399861668
scalar Scenario2.node[69].veinsmobility 	maxSpeed 	18.994541057395
scalar Scenario2.node[69].veinsmobility 	totalDistance 	557.44137128233
scalar Scenario2.node[69].veinsmobility 	totalCO2Emission 	133.33762905362
scalar Scenario2.node[2].appl 	generatedWSMs 	1
scalar Scenario2.node[2].appl 	receivedWSMs 	77
scalar Scenario2.node[2].appl 	generatedBSMs 	42
scalar Scenario2.node[2].appl 	receivedBSMs 	3984
scalar Scenario2.node[2].appl 	generatedWSAs 	0
scalar Scenario2.node[2].appl 	receivedWSAs 	0
scalar Scenario2.node[2].appl 	delayWSM 	2.010746621598
scalar Scenario2.node[2].appl 	Dist_Propa 	284.33206558482
scalar Scenario2.node[2].nic.phy80211p 	busyTime 	0.010383238095238
scalar Scenario2.node[2].nic.phy80211p 	ncollisions 	16
scalar Scenario2.node[2].nic.mac1609_4 	ReceivedUnicastPackets 	0
scalar Scenario2.node[2].nic.mac1609_4 	ReceivedBroadcasts 	4061
scalar Scenario2.node[2].nic.mac1609_4 	SentPackets 	43
scalar Scenario2.node[2].nic.mac1609_4 	SNIRLostPackets 	35
scalar Scenario2.node[2].nic.mac1609_4 	RXTXLostPackets 	0
scalar Scenario2.node[2].nic.mac1609_4 	TotalLostPackets 	35
scalar Scenario2.node[2].nic.mac1609_4 	DroppedPacketsInMac 	0
scalar Scenario2.node[2].nic.mac1609_4 	TooLittleTime 	0
scalar Scenario2.node[2].nic.mac1609_4 	TimesIntoBackoff 	43
scalar Scenario2.node[2].nic.mac1609_4 	SlotsBackoff 	58
scalar Scenario2.node[2].nic.mac1609_4 	NumInternalContention 	0
scalar Scenario2.node[2].nic.mac1609_4 	totalBusyTime 	0.438763
scalar Scenario2.node[2].veinsmobility 	startTime 	1
scalar Scenario2.node[2].veinsmobility 	totalTime 	41
scalar Scenario2.node[2].veinsmobility 	stopTime 	43
scalar Scenario2.node[2].veinsmobility 	minSpeed 	3.897912896338
scalar Scenario2.node[2].veinsmobility 	maxSpeed 	18.952529372755
scalar Scenario2.node[2].veinsmobility 	totalDistance 	587.77899406994
scalar Scenario2.node[2].veinsmobility 	totalCO2Emission 	134.19222120583
scalar Scenario2.node[100].appl 	generatedWSMs 	1
scalar Scenario2.node[100].appl 	receivedWSMs 	80
scalar Scenario2.node[100].appl 	generatedBSMs 	36
scalar Scenario2.node[100].appl 	receivedBSMs 	3643
scalar Scenario2.node[100].appl 	generatedWSAs 	0
scalar Scenario2.node[100].appl 	receivedWSAs 	0
scalar Scenario2.node[100].appl 	delayWSM 	2.010746595198
scalar Scenario2.node[100].appl 	Dist_Propa 	295.58278774846
scalar Scenario2.node[100].nic.phy80211p 	busyTime 	0.011107555555555
scalar Scenario2.node[100].nic.phy80211p 	ncollisions 	9
scalar Scenario2.node[100].nic.mac1609_4 	ReceivedUnicastPackets 	0
scalar Scenario2.node[100].nic.mac1609_4 	ReceivedBroadcasts 	3723
scalar Scenario2.node[100].nic.mac1609_4 	SentPackets 	37
scalar Scenario2.node[100].nic.mac1609_4 	SNIRLostPackets 	21
scalar Scenario2.node[100].nic.mac1609_4 	RXTXLostPackets 	0
scalar Scenario2.node[100].nic.mac1609_4 	TotalLostPackets 	21
scalar Scenario2.node[100].nic.mac1609_4 	DroppedPacketsInMac 	0
scalar Scenario2.node[100].nic.mac1609_4 	TooLittleTime 	0
scalar Scenario2.node[100].nic.mac1609_4 	TimesIntoBackoff 	37
scalar Scenario2.node[100].nic.mac1609_4 	SlotsBackoff 	59
scalar Scenario2.node[100].nic.mac1609_4 	NumInternalContention 	0
scalar Scenario2.node[100].nic.mac1609_4 	totalBusyTime 	0.402637
scalar Scenario2.node[100].veinsmobility 	startTime 	7
scalar Scenario2.node[100].veinsmobility 	totalTime 	35
scalar Scenario2.node[100].veinsmobility 	stopTime 	43
scalar Scenario2.node[100].veinsmobility 	minSpeed 	3.7401869103686
scalar Scenario2.node[100].veinsmobility 	maxSpeed 	18.953406393947
scalar Scenario2.node[100].veinsmobility 	totalDistance 	554.61934619149
scalar Scenario2.node[100].veinsmobility 	totalCO2Emission 	124.93218523496
scalar Scenario2.node[75].appl 	generatedWSMs 	1
scalar Scenario2.node[75].appl 	receivedWSMs 	87
scalar Scenario2.node[75].appl 	generatedBSMs 	41
scalar Scenario2.node[75].appl 	receivedBSMs 	4083
scalar Scenario2.node[75].appl 	generatedWSAs 	0
scalar Scenario2.node[75].appl 	receivedWSAs 	0
scalar Scenario2.node[75].appl 	delayWSM 	2.010746547729
scalar Scenario2.node[75].appl 	Dist_Propa 	304.16678829337
scalar Scenario2.node[75].nic.phy80211p 	busyTime 	0.010928975609756
scalar Scenario2.node[75].nic.phy80211p 	ncollisions 	12
scalar Scenario2.node[75].nic.mac1609_4 	ReceivedUnicastPackets 	0
scalar Scenario2.node[75].nic.mac1609_4 	ReceivedBroadcasts 	4170
scalar Scenario2.node[75].nic.mac1609_4 	SentPackets 	42
scalar Scenario2.node[75].nic.mac1609_4 	SNIRLostPackets 	29
scalar Scenario2.node[75].nic.mac1609_4 	RXTXLostPackets 	0
scalar Scenario2.node[75].nic.mac1609_4 	TotalLostPackets 	29
scalar Scenario2.node[75].nic.mac1609_4 	DroppedPacketsInMac 	0
scalar Scenario2.node[75].nic.mac1609_4 	TooLittleTime 	0
scalar Scenario2.node[75].nic.mac1609_4 	TimesIntoBackoff 	42
scalar Scenario2.node[75].nic.mac1609_4 	SlotsBackoff 	74
scalar Scenario2.node[75].nic.mac1609_4 	NumInternalContention 	0
scalar Scenario2.node[75].nic.mac1609_4 	totalBusyTime 	0.450858
scalar Scenario2.node[75].veinsmobility 	startTime 	3
scalar Scenario2.node[75].veinsmobility 	totalTime 	40
scalar Scenario2.node[75].veinsmobility 	stopTime 	44
scalar Scenario2.node[75].veinsmobility 	minSpeed 	3.7663311277212
scalar Scenario2.node[75].veinsmobility 	maxSpeed 	18.953042766952
scalar Scenario2.node[75].veinsmobility 	totalDistance 	592.6119070957
scalar Scenario2.node[75].veinsmobility 	totalCO2Emission 	136.32523109303
scalar Scenario2.node[102].appl 	generatedWSMs 	1
scalar Scenario2.node[102].appl 	receivedWSMs 	92
scalar Scenario2.node[102].appl 	generatedBSMs 	37
scalar Scenario2.node[102].appl 	receivedBSMs 	3876
scalar Scenario2.node[102].appl 	generatedWSAs 	0
scalar Scenario2.node[102].appl 	receivedWSAs 	0
scalar Scenario2.node[102].appl 	delayWSM 	2.010746518716
scalar Scenario2.node[102].appl 	Dist_Propa 	316.62081814491
scalar Scenario2.node[102].nic.phy80211p 	busyTime 	0.011529081081081
scalar Scenario2.node[102].nic.phy80211p 	ncollisions 	6
scalar Scenario2.node[102].nic.mac1609_4 	ReceivedUnicastPackets 	0
scalar Scenario2.node[102].nic.mac1609_4 	ReceivedBroadcasts 	3968
scalar Scenario2.node[102].nic.mac1609_4 	SentPackets 	38
scalar Scenario2.node[102].nic.mac1609_4 	SNIRLostPackets 	18
scalar Scenario2.node[102].nic.mac1609_4 	RXTXLostPackets 	0
scalar Scenario2.node[102].nic.mac1609_4 	TotalLostPackets 	18
scalar Scenario2.node[102].nic.mac1609_4 	DroppedPacketsInMac 	0
scalar Scenario2.node[102].nic.mac1609_4 	TooLittleTime 	0
scalar Scenario2.node[102].nic.mac1609_4 	TimesIntoBackoff 	38
scalar Scenario2.node[102].nic.mac1609_4 	SlotsBackoff 	57
scalar Scenario2.node[102].nic.mac1609_4 	NumInternalContention 	0
scalar Scenario2.node[102].nic.mac1609_4 	totalBusyTime 	0.429446
scalar Scenario2.node[102].veinsmobility 	startTime 	7
scalar Scenario2.node[102].veinsmobility 	totalTime 	36
scalar Scenario2.node[102].veinsmobility 	stopTime 	44
scalar Scenario2.node[102].veinsmobility 	minSpeed 	2.9899711694765
scalar Scenario2.node[102].veinsmobility 	maxSpeed 	18.986820058792
scalar Scenario2.node[102].veinsmobility 	totalDistance 	561.05710037719
scalar Scenario2.node[102].veinsmobility 	totalCO2Emission 	128.11329495202
scalar Scenario2.node[10].appl 	generatedWSMs 	1
scalar Scenario2.node[10].appl 	receivedWSMs 	96
scalar Scenario2.node[10].appl 	generatedBSMs 	44
scalar Scenario2.node[10].appl 	receivedBSMs 	4408
scalar Scenario2.node[10].appl 	generatedWSAs 	0
scalar Scenario2.node[10].appl 	receivedWSAs 	0
scalar Scenario2.node[10].appl 	delayWSM 	2.010746474539
scalar Scenario2.node[10].appl 	Dist_Propa 	323.98516881885
scalar Scenario2.node[10].nic.phy80211p 	busyTime 	0.011011818181818
scalar Scenario2.node[10].nic.phy80211p 	ncollisions 	14
scalar Scenario2.node[10].nic.mac1609_4 	ReceivedUnicastPackets 	0
scalar Scenario2.node[10].nic.mac1609_4 	ReceivedBroadcasts 	4504
scalar Scenario2.node[10].nic.mac1609_4 	SentPackets 	45
scalar Scenario2.node[10].nic.mac1609_4 	SNIRLostPackets 	33
scalar Scenario2.node[10].nic.mac1609_4 	RXTXLostPackets 	0
scalar Scenario2.node[10].nic.mac1609_4 	TotalLostPackets 	33
scalar Scenario2.node[10].nic.mac1609_4 	DroppedPacketsInMac 	0
scalar Scenario2.node[10].nic.mac1609_4 	TooLittleTime 	0
scalar Scenario2.node[10].nic.mac1609_4 	TimesIntoBackoff 	45
scalar Scenario2.node[10].nic.mac1609_4 	SlotsBackoff 	62
scalar Scenario2.node[10].nic.mac1609_4 	NumInternalContention 	0
scalar Scenario2.node[10].nic.mac1609_4 	totalBusyTime 	0.487397
scalar Scenario2.node[10].veinsmobility 	startTime 	1
scalar Scenario2.node[10].veinsmobility 	totalTime 	43
scalar Scenario2.node[10].veinsmobility 	stopTime 	45
scalar Scenario2.node[10].veinsmobility 	minSpeed 	3.6504235994233
scalar Scenario2.node[10].veinsmobility 	maxSpeed 	18.96345657906
scalar Scenario2.node[10].veinsmobility 	totalDistance 	629.30644292796
scalar Scenario2.node[10].veinsmobility 	totalCO2Emission 	142.41398201351
scalar Scenario2.node[12].appl 	generatedWSMs 	1
scalar Scenario2.node[12].appl 	receivedWSMs 	108
scalar Scenario2.node[12].appl 	generatedBSMs 	45
scalar Scenario2.node[12].appl 	receivedBSMs 	4645
scalar Scenario2.node[12].appl 	generatedWSAs 	0
scalar Scenario2.node[12].appl 	receivedWSAs 	0
scalar Scenario2.node[12].appl 	delayWSM 	2.010746402025
scalar Scenario2.node[12].appl 	Dist_Propa 	336.99964184871
scalar Scenario2.node[12].nic.phy80211p 	busyTime 	0.011366933333333
scalar Scenario2.node[12].nic.phy80211p 	ncollisions 	11
scalar Scenario2.node[12].nic.mac1609_4 	ReceivedUnicastPackets 	0
scalar Scenario2.node[12].nic.mac1609_4 	ReceivedBroadcasts 	4753
scalar Scenario2.node[12].nic.mac1609_4 	SentPackets 	46
scalar Scenario2.node[12].nic.mac1609_4 	SNIRLostPackets 	30
scalar Scenario2.node[12].nic.mac1609_4 	RXTXLostPackets 	0
scalar Scenario2.node[12].nic.mac1609_4 	TotalLostPackets 	30
scalar Scenario2.node[12].nic.mac1609_4 	DroppedPacketsInMac 	0
scalar Scenario2.node[12].nic.mac1609_4 	TooLittleTime 	0
scalar Scenario2.node[12].nic.mac1609_4 	TimesIntoBackoff 	46
scalar Scenario2.node[12].nic.mac1609_4 	SlotsBackoff 	69
scalar Scenario2.node[12].nic.mac1609_4 	NumInternalContention 	0
scalar Scenario2.node[12].nic.mac1609_4 	totalBusyTime 	0.514494
scalar Scenario2.node[12].veinsmobility 	startTime 	1
scalar Scenario2.node[12].veinsmobility 	totalTime 	44
scalar Scenario2.node[12].veinsmobility 	stopTime 	46
scalar Scenario2.node[12].veinsmobility 	minSpeed 	3.8852701568365
scalar Scenario2.node[12].veinsmobility 	maxSpeed 	18.996202773422
scalar Scenario2.node[12].veinsmobility 	totalDistance 	635.78531932981
scalar Scenario2.node[12].veinsmobility 	totalCO2Emission 	140.16590807303
scalar Scenario2.node[132].appl 	generatedWSMs 	1
scalar Scenario2.node[132].appl 	receivedWSMs 	115
scalar Scenario2.node[132].appl 	generatedBSMs 	34
scalar Scenario2.node[132].appl 	receivedBSMs 	3852
scalar Scenario2.node[132].appl 	generatedWSAs 	0
scalar Scenario2.node[132].appl 	receivedWSAs 	0
scalar Scenario2.node[132].appl 	delayWSM 	2.010746323748
scalar Scenario2.node[132].appl 	Dist_Propa 	380.22176811537
scalar Scenario2.node[132].nic.phy80211p 	busyTime 	0.012651058823529
scalar Scenario2.node[132].nic.phy80211p 	ncollisions 	7
scalar Scenario2.node[132].nic.mac1609_4 	ReceivedUnicastPackets 	0
scalar Scenario2.node[132].nic.mac1609_4 	ReceivedBroadcasts 	3967
scalar Scenario2.node[132].nic.mac1609_4 	SentPackets 	35
scalar Scenario2.node[132].nic.mac1609_4 	SNIRLostPackets 	20
scalar Scenario2.node[132].nic.mac1609_4 	RXTXLostPackets 	0
scalar Scenario2.node[132].nic.mac1609_4 	TotalLostPackets 	20
scalar Scenario2.node[132].nic.mac1609_4 	DroppedPacketsInMac 	0
scalar Scenario2.node[132].nic.mac1609_4 	TooLittleTime 	0
scalar Scenario2.node[132].nic.mac1609_4 	TimesIntoBackoff 	35
scalar Scenario2.node[132].nic.mac1609_4 	SlotsBackoff 	53
scalar Scenario2.node[132].nic.mac1609_4 	NumInternalContention 	0
scalar Scenario2.node[132].nic.mac1609_4 	totalBusyTime 	0.432203
scalar Scenario2.node[132].veinsmobility 	startTime 	13
scalar Scenario2.node[132].veinsmobility 	totalTime 	33
scalar Scenario2.node[132].veinsmobility 	stopTime 	47
scalar Scenario2.node[132].veinsmobility 	minSpeed 	1.0325582238956
scalar Scenario2.node[132].veinsmobility 	maxSpeed 	18.997862700217
scalar Scenario2.node[132].veinsmobility 	totalDistance 	503.42720242976
scalar Scenario2.node[132].veinsmobility 	totalCO2Emission 	123.10429419579
scalar Scenario2.node[127].appl 	generatedWSMs 	1
scalar Scenario2.node[127].appl 	receivedWSMs 	114
scalar Scenario2.node[127].appl 	generatedBSMs 	35
scalar Scenario2.node[127].appl 	receivedBSMs 	3985
scalar Scenario2.node[127].appl 	generatedWSAs 	0
scalar Scenario2.node[127].appl 	receivedWSAs 	0
scalar Scenario2.node[127].appl 	delayWSM 	2.010746324484
scalar Scenario2.node[127].appl 	Dist_Propa 	368.54353487297
scalar Scenario2.node[127].nic.phy80211p 	busyTime 	0.0126752
scalar Scenario2.node[127].nic.phy80211p 	ncollisions 	6
scalar Scenario2.node[127].nic.mac1609_4 	ReceivedUnicastPackets 	0
scalar Scenario2.node[127].nic.mac1609_4 	ReceivedBroadcasts 	4099
scalar Scenario2.node[127].nic.mac1609_4 	SentPackets 	36
scalar Scenario2.node[127].nic.mac1609_4 	SNIRLostPackets 	19
scalar Scenario2.node[127].nic.mac1609_4 	RXTXLostPackets 	0
scalar Scenario2.node[127].nic.mac1609_4 	TotalLostPackets 	19
scalar Scenario2.node[127].nic.mac1609_4 	DroppedPacketsInMac 	0
scalar Scenario2.node[127].nic.mac1609_4 	TooLittleTime 	0
scalar Scenario2.node[127].nic.mac1609_4 	TimesIntoBackoff 	36
scalar Scenario2.node[127].nic.mac1609_4 	SlotsBackoff 	55
scalar Scenario2.node[127].nic.mac1609_4 	NumInternalContention 	0
scalar Scenario2.node[127].nic.mac1609_4 	totalBusyTime 	0.445804
scalar Scenario2.node[127].veinsmobility 	startTime 	12
scalar Scenario2.node[127].veinsmobility 	totalTime 	34
scalar Scenario2.node[127].veinsmobility 	stopTime 	47
scalar Scenario2.node[127].veinsmobility 	minSpeed 	3.570553295702
scalar Scenario2.node[127].veinsmobility 	maxSpeed 	18.975364867717
scalar Scenario2.node[127].veinsmobility 	totalDistance 	531.42299839614
scalar Scenario2.node[127].veinsmobility 	totalCO2Emission 	124.39114956524
scalar Scenario2.node[137].appl 	generatedWSMs 	1
scalar Scenario2.node[137].appl 	receivedWSMs 	128
scalar Scenario2.node[137].appl 	generatedBSMs 	34
scalar Scenario2.node[137].appl 	receivedBSMs 	3882
scalar Scenario2.node[137].appl 	generatedWSAs 	0
scalar Scenario2.node[137].appl 	receivedWSAs 	0
scalar Scenario2.node[137].appl 	delayWSM 	2.01074624995
scalar Scenario2.node[137].appl 	Dist_Propa 	399.1156958978
scalar Scenario2.node[137].nic.phy80211p 	busyTime 	0.012825411764705
scalar Scenario2.node[137].nic.phy80211p 	ncollisions 	7
scalar Scenario2.node[137].nic.mac1609_4 	ReceivedUnicastPackets 	0
scalar Scenario2.node[137].nic.mac1609_4 	ReceivedBroadcasts 	4010
scalar Scenario2.node[137].nic.mac1609_4 	SentPackets 	35
scalar Scenario2.node[137].nic.mac1609_4 	SNIRLostPackets 	18
scalar Scenario2.node[137].nic.mac1609_4 	RXTXLostPackets 	0
scalar Scenario2.node[137].nic.mac1609_4 	TotalLostPackets 	18
scalar Scenario2.node[137].nic.mac1609_4 	DroppedPacketsInMac 	0
scalar Scenario2.node[137].nic.mac1609_4 	TooLittleTime 	0
scalar Scenario2.node[137].nic.mac1609_4 	TimesIntoBackoff 	35
scalar Scenario2.node[137].nic.mac1609_4 	SlotsBackoff 	49
scalar Scenario2.node[137].nic.mac1609_4 	NumInternalContention 	0
scalar Scenario2.node[137].nic.mac1609_4 	totalBusyTime 	0.438339
scalar Scenario2.node[137].veinsmobility 	startTime 	15
scalar Scenario2.node[137].veinsmobility 	totalTime 	33
scalar Scenario2.node[137].veinsmobility 	stopTime 	49
scalar Scenario2.node[137].veinsmobility 	minSpeed 	3.7054345497005
scalar Scenario2.node[137].veinsmobility 	maxSpeed 	18.949315995281
scalar Scenario2.node[137].veinsmobility 	totalDistance 	521.67415162342
scalar Scenario2.node[137].veinsmobility 	totalCO2Emission 	120.89327527729
scalar Scenario2.node[141].appl 	generatedWSMs 	1
scalar Scenario2.node[141].appl 	receivedWSMs 	128
scalar Scenario2.node[141].appl 	generatedBSMs 	34
scalar Scenario2.node[141].appl 	receivedBSMs 	3902
scalar Scenario2.node[141].appl 	generatedWSAs 	0
scalar Scenario2.node[141].appl 	receivedWSAs 	0
scalar Scenario2.node[141].appl 	delayWSM 	2.010746249319
scalar Scenario2.node[141].appl 	Dist_Propa 	395.6955873489
scalar Scenario2.node[141].nic.phy80211p 	busyTime 	0.012886588235294
scalar Scenario2.node[141].nic.phy80211p 	ncollisions 	7
scalar Scenario2.node[141].nic.mac1609_4 	ReceivedUnicastPackets 	0
scalar Scenario2.node[141].nic.mac1609_4 	ReceivedBroadcasts 	4030
scalar Scenario2.node[141].nic.mac1609_4 	SentPackets 	35
scalar Scenario2.node[141].nic.mac1609_4 	SNIRLostPackets 	18
scalar Scenario2.node[141].nic.mac1609_4 	RXTXLostPackets 	0
scalar Scenario2.node[141].nic.mac1609_4 	TotalLostPackets 	18
scalar Scenario2.node[141].nic.mac1609_4 	DroppedPacketsInMac 	0
scalar Scenario2.node[141].nic.mac1609_4 	TooLittleTime 	0
scalar Scenario2.node[141].nic.mac1609_4 	TimesIntoBackoff 	36
scalar Scenario2.node[141].nic.mac1609_4 	SlotsBackoff 	51
scalar Scenario2.node[141].nic.mac1609_4 	NumInternalContention 	0
scalar Scenario2.node[141].nic.mac1609_4 	totalBusyTime 	0.440419
scalar Scenario2.node[141].veinsmobility 	startTime 	15
scalar Scenario2.node[141].veinsmobility 	totalTime 	33
scalar Scenario2.node[141].veinsmobility 	stopTime 	49
scalar Scenario2.node[141].veinsmobility 	minSpeed 	2.4699518346809
scalar Scenario2.node[141].veinsmobility 	maxSpeed 	18.998616740918
scalar Scenario2.node[141].veinsmobility 	totalDistance 	536.39102144913
scalar Scenario2.node[141].veinsmobility 	totalCO2Emission 	124.36501758974
scalar Scenario2.node[105].appl 	generatedWSMs 	1
scalar Scenario2.node[105].appl 	receivedWSMs 	150
scalar Scenario2.node[105].appl 	generatedBSMs 	42
scalar Scenario2.node[105].appl 	receivedBSMs 	4895
scalar Scenario2.node[105].appl 	generatedWSAs 	0
scalar Scenario2.node[105].appl 	receivedWSAs 	0
scalar Scenario2.node[105].appl 	delayWSM 	0.000234088977
scalar Scenario2.node[105].appl 	Dist_Propa 	411.69100565377
scalar Scenario2.node[105].nic.phy80211p 	busyTime 	0.01310019047619
scalar Scenario2.node[105].nic.phy80211p 	ncollisions 	25
scalar Scenario2.node[105].nic.mac1609_4 	ReceivedUnicastPackets 	0
scalar Scenario2.node[105].nic.mac1609_4 	ReceivedBroadcasts 	5045
scalar Scenario2.node[105].nic.mac1609_4 	SentPackets 	43
scalar Scenario2.node[105].nic.mac1609_4 	SNIRLostPackets 	51
scalar Scenario2.node[105].nic.mac1609_4 	RXTXLostPackets 	0
scalar Scenario2.node[105].nic.mac1609_4 	TotalLostPackets 	51
scalar Scenario2.node[105].nic.mac1609_4 	DroppedPacketsInMac 	0
scalar Scenario2.node[105].nic.mac1609_4 	TooLittleTime 	0
scalar Scenario2.node[105].nic.mac1609_4 	TimesIntoBackoff 	43
scalar Scenario2.node[105].nic.mac1609_4 	SlotsBackoff 	48
scalar Scenario2.node[105].nic.mac1609_4 	NumInternalContention 	0
scalar Scenario2.node[105].nic.mac1609_4 	totalBusyTime 	0.551763
scalar Scenario2.node[105].veinsmobility 	startTime 	7
scalar Scenario2.node[105].veinsmobility 	totalTime 	41
scalar Scenario2.node[105].veinsmobility 	stopTime 	49
scalar Scenario2.node[105].veinsmobility 	minSpeed 	0.79846306713479
scalar Scenario2.node[105].veinsmobility 	maxSpeed 	18.9987192666
scalar Scenario2.node[105].veinsmobility 	totalDistance 	574.23690866301
scalar Scenario2.node[105].veinsmobility 	totalCO2Emission 	139.39240827924
scalar Scenario2.node[163].appl 	generatedWSMs 	1
scalar Scenario2.node[163].appl 	receivedWSMs 	140
scalar Scenario2.node[163].appl 	generatedBSMs 	32
scalar Scenario2.node[163].appl 	receivedBSMs 	3759
scalar Scenario2.node[163].appl 	generatedWSAs 	0
scalar Scenario2.node[163].appl 	receivedWSAs 	0
scalar Scenario2.node[163].appl 	delayWSM 	2.010746152869
scalar Scenario2.node[163].appl 	Dist_Propa 	430.68220042408
scalar Scenario2.node[163].nic.phy80211p 	busyTime 	0.01330775
scalar Scenario2.node[163].nic.phy80211p 	ncollisions 	7
scalar Scenario2.node[163].nic.mac1609_4 	ReceivedUnicastPackets 	0
scalar Scenario2.node[163].nic.mac1609_4 	ReceivedBroadcasts 	3899
scalar Scenario2.node[163].nic.mac1609_4 	SentPackets 	33
scalar Scenario2.node[163].nic.mac1609_4 	SNIRLostPackets 	16
scalar Scenario2.node[163].nic.mac1609_4 	RXTXLostPackets 	0
scalar Scenario2.node[163].nic.mac1609_4 	TotalLostPackets 	16
scalar Scenario2.node[163].nic.mac1609_4 	DroppedPacketsInMac 	0
scalar Scenario2.node[163].nic.mac1609_4 	TooLittleTime 	0
scalar Scenario2.node[163].nic.mac1609_4 	TimesIntoBackoff 	33
scalar Scenario2.node[163].nic.mac1609_4 	SlotsBackoff 	45
scalar Scenario2.node[163].nic.mac1609_4 	NumInternalContention 	0
scalar Scenario2.node[163].nic.mac1609_4 	totalBusyTime 	0.428121
scalar Scenario2.node[163].veinsmobility 	startTime 	18
scalar Scenario2.node[163].veinsmobility 	totalTime 	31
scalar Scenario2.node[163].veinsmobility 	stopTime 	50
scalar Scenario2.node[163].veinsmobility 	minSpeed 	3.2362021176079
scalar Scenario2.node[163].veinsmobility 	maxSpeed 	18.995516344768
scalar Scenario2.node[163].veinsmobility 	totalDistance 	507.69244103002
scalar Scenario2.node[163].veinsmobility 	totalCO2Emission 	119.51915105506
scalar Scenario2.node[164].appl 	generatedWSMs 	1
scalar Scenario2.node[164].appl 	receivedWSMs 	162
scalar Scenario2.node[164].appl 	generatedBSMs 	33
scalar Scenario2.node[164].appl 	receivedBSMs 	4017
scalar Scenario2.node[164].appl 	generatedWSAs 	0
scalar Scenario2.node[164].appl 	receivedWSAs 	0
scalar Scenario2.node[164].appl 	delayWSM 	0.000234010932
scalar Scenario2.node[164].appl 	Dist_Propa 	456.16733822584
scalar Scenario2.node[164].nic.phy80211p 	busyTime 	0.013986424242424
scalar Scenario2.node[164].nic.phy80211p 	ncollisions 	27
scalar Scenario2.node[164].nic.mac1609_4 	ReceivedUnicastPackets 	0
scalar Scenario2.node[164].nic.mac1609_4 	ReceivedBroadcasts 	4179
scalar Scenario2.node[164].nic.mac1609_4 	SentPackets 	34
scalar Scenario2.node[164].nic.mac1609_4 	SNIRLostPackets 	51
scalar Scenario2.node[164].nic.mac1609_4 	RXTXLostPackets 	0
scalar Scenario2.node[164].nic.mac1609_4 	TotalLostPackets 	51
scalar Scenario2.node[164].nic.mac1609_4 	DroppedPacketsInMac 	0
scalar Scenario2.node[164].nic.mac1609_4 	TooLittleTime 	0
scalar Scenario2.node[164].nic.mac1609_4 	TimesIntoBackoff 	34
scalar Scenario2.node[164].nic.mac1609_4 	SlotsBackoff 	50
scalar Scenario2.node[164].nic.mac1609_4 	NumInternalContention 	0
scalar Scenario2.node[164].nic.mac1609_4 	totalBusyTime 	0.46237
scalar Scenario2.node[164].veinsmobility 	startTime 	18
scalar Scenario2.node[164].veinsmobility 	totalTime 	32
scalar Scenario2.node[164].veinsmobility 	stopTime 	51
scalar Scenario2.node[164].veinsmobility 	minSpeed 	2.6560707084217
scalar Scenario2.node[164].veinsmobility 	maxSpeed 	18.995079022406
scalar Scenario2.node[164].veinsmobility 	totalDistance 	520.46900373988
scalar Scenario2.node[164].veinsmobility 	totalCO2Emission 	121.70739795369
scalar Scenario2.node[151].appl 	generatedWSMs 	1
scalar Scenario2.node[151].appl 	receivedWSMs 	149
scalar Scenario2.node[151].appl 	generatedBSMs 	35
scalar Scenario2.node[151].appl 	receivedBSMs 	4292
scalar Scenario2.node[151].appl 	generatedWSAs 	0
scalar Scenario2.node[151].appl 	receivedWSAs 	0
scalar Scenario2.node[151].appl 	delayWSM 	0.000234301281
scalar Scenario2.node[151].appl 	Dist_Propa 	383.11489043508
scalar Scenario2.node[151].nic.phy80211p 	busyTime 	0.013849828571428
scalar Scenario2.node[151].nic.phy80211p 	ncollisions 	17
scalar Scenario2.node[151].nic.mac1609_4 	ReceivedUnicastPackets 	0
scalar Scenario2.node[151].nic.mac1609_4 	ReceivedBroadcasts 	4441
scalar Scenario2.node[151].nic.mac1609_4 	SentPackets 	36
scalar Scenario2.node[151].nic.mac1609_4 	SNIRLostPackets 	28
scalar Scenario2.node[151].nic.mac1609_4 	RXTXLostPackets 	0
scalar Scenario2.node[151].nic.mac1609_4 	TotalLostPackets 	28
scalar Scenario2.node[151].nic.mac1609_4 	DroppedPacketsInMac 	0
scalar Scenario2.node[151].nic.mac1609_4 	TooLittleTime 	0
scalar Scenario2.node[151].nic.mac1609_4 	TimesIntoBackoff 	62
scalar Scenario2.node[151].nic.mac1609_4 	SlotsBackoff 	93
scalar Scenario2.node[151].nic.mac1609_4 	NumInternalContention 	0
scalar Scenario2.node[151].nic.mac1609_4 	totalBusyTime 	0.487124
scalar Scenario2.node[151].veinsmobility 	startTime 	16
scalar Scenario2.node[151].veinsmobility 	totalTime 	34
scalar Scenario2.node[151].veinsmobility 	stopTime 	51
scalar Scenario2.node[151].veinsmobility 	minSpeed 	1.4619825295685
scalar Scenario2.node[151].veinsmobility 	maxSpeed 	18.99749420386
scalar Scenario2.node[151].veinsmobility 	totalDistance 	519.28776174372
scalar Scenario2.node[151].veinsmobility 	totalCO2Emission 	125.8211529421
scalar Scenario2.node[145].appl 	generatedWSMs 	1
scalar Scenario2.node[145].appl 	receivedWSMs 	149
scalar Scenario2.node[145].appl 	generatedBSMs 	35
scalar Scenario2.node[145].appl 	receivedBSMs 	4295
scalar Scenario2.node[145].appl 	generatedWSAs 	0
scalar Scenario2.node[145].appl 	receivedWSAs 	0
scalar Scenario2.node[145].appl 	delayWSM 	0.000234301755
scalar Scenario2.node[145].appl 	Dist_Propa 	385.62797474352
scalar Scenario2.node[145].nic.phy80211p 	busyTime 	0.013864685714285
scalar Scenario2.node[145].nic.phy80211p 	ncollisions 	19
scalar Scenario2.node[145].nic.mac1609_4 	ReceivedUnicastPackets 	0
scalar Scenario2.node[145].nic.mac1609_4 	ReceivedBroadcasts 	4444
scalar Scenario2.node[145].nic.mac1609_4 	SentPackets 	36
scalar Scenario2.node[145].nic.mac1609_4 	SNIRLostPackets 	30
scalar Scenario2.node[145].nic.mac1609_4 	RXTXLostPackets 	0
scalar Scenario2.node[145].nic.mac1609_4 	TotalLostPackets 	30
scalar Scenario2.node[145].nic.mac1609_4 	DroppedPacketsInMac 	0
scalar Scenario2.node[145].nic.mac1609_4 	TooLittleTime 	0
scalar Scenario2.node[145].nic.mac1609_4 	TimesIntoBackoff 	36
scalar Scenario2.node[145].nic.mac1609_4 	SlotsBackoff 	64
scalar Scenario2.node[145].nic.mac1609_4 	NumInternalContention 	0
scalar Scenario2.node[145].nic.mac1609_4 	totalBusyTime 	0.487644
scalar Scenario2.node[145].veinsmobility 	startTime 	16
scalar Scenario2.node[145].veinsmobility 	totalTime 	34
scalar Scenario2.node[145].veinsmobility 	stopTime 	51
scalar Scenario2.node[145].veinsmobility 	minSpeed 	3.482900294836
scalar Scenario2.node[145].veinsmobility 	maxSpeed 	18.993171909307
scalar Scenario2.node[145].veinsmobility 	totalDistance 	528.29977957109
scalar Scenario2.node[145].veinsmobility 	totalCO2Emission 	124.25854551765
scalar Scenario2.node[30].appl 	generatedWSMs 	1
scalar Scenario2.node[30].appl 	receivedWSMs 	166
scalar Scenario2.node[30].appl 	generatedBSMs 	51
scalar Scenario2.node[30].appl 	receivedBSMs 	5859
scalar Scenario2.node[30].appl 	generatedWSAs 	0
scalar Scenario2.node[30].appl 	receivedWSAs 	0
scalar Scenario2.node[30].appl 	delayWSM 	0.000233977205
scalar Scenario2.node[30].appl 	Dist_Propa 	479.60717431453
scalar Scenario2.node[30].nic.phy80211p 	busyTime 	0.012889725490196
scalar Scenario2.node[30].nic.phy80211p 	ncollisions 	42
scalar Scenario2.node[30].nic.mac1609_4 	ReceivedUnicastPackets 	0
scalar Scenario2.node[30].nic.mac1609_4 	ReceivedBroadcasts 	6025
scalar Scenario2.node[30].nic.mac1609_4 	SentPackets 	52
scalar Scenario2.node[30].nic.mac1609_4 	SNIRLostPackets 	83
scalar Scenario2.node[30].nic.mac1609_4 	RXTXLostPackets 	0
scalar Scenario2.node[30].nic.mac1609_4 	TotalLostPackets 	83
scalar Scenario2.node[30].nic.mac1609_4 	DroppedPacketsInMac 	0
scalar Scenario2.node[30].nic.mac1609_4 	TooLittleTime 	0
scalar Scenario2.node[30].nic.mac1609_4 	TimesIntoBackoff 	52
scalar Scenario2.node[30].nic.mac1609_4 	SlotsBackoff 	86
scalar Scenario2.node[30].nic.mac1609_4 	NumInternalContention 	0
scalar Scenario2.node[30].nic.mac1609_4 	totalBusyTime 	0.658316189872
scalar Scenario2.node[30].veinsmobility 	startTime 	1
scalar Scenario2.node[30].veinsmobility 	totalTime 	50
scalar Scenario2.node[30].veinsmobility 	stopTime 	52
scalar Scenario2.node[30].veinsmobility 	minSpeed 	2.6830987371857
scalar Scenario2.node[30].veinsmobility 	maxSpeed 	18.998360855293
scalar Scenario2.node[30].veinsmobility 	totalDistance 	840.56722214892
scalar Scenario2.node[30].veinsmobility 	totalCO2Emission 	180.75164650604
scalar Scenario2.node[7].appl 	generatedWSMs 	1
scalar Scenario2.node[7].appl 	receivedWSMs 	153
scalar Scenario2.node[7].appl 	generatedBSMs 	52
scalar Scenario2.node[7].appl 	receivedBSMs 	5969
scalar Scenario2.node[7].appl 	generatedWSAs 	0
scalar Scenario2.node[7].appl 	receivedWSAs 	0
scalar Scenario2.node[7].appl 	delayWSM 	0.00023423595
scalar Scenario2.node[7].appl 	Dist_Propa 	378.70124616797
scalar Scenario2.node[7].nic.phy80211p 	busyTime 	0.012754307692307
scalar Scenario2.node[7].nic.phy80211p 	ncollisions 	32
scalar Scenario2.node[7].nic.mac1609_4 	ReceivedUnicastPackets 	0
scalar Scenario2.node[7].nic.mac1609_4 	ReceivedBroadcasts 	6122
scalar Scenario2.node[7].nic.mac1609_4 	SentPackets 	53
scalar Scenario2.node[7].nic.mac1609_4 	SNIRLostPackets 	57
scalar Scenario2.node[7].nic.mac1609_4 	RXTXLostPackets 	0
scalar Scenario2.node[7].nic.mac1609_4 	TotalLostPackets 	57
scalar Scenario2.node[7].nic.mac1609_4 	DroppedPacketsInMac 	0
scalar Scenario2.node[7].nic.mac1609_4 	TooLittleTime 	0
scalar Scenario2.node[7].nic.mac1609_4 	TimesIntoBackoff 	53
scalar Scenario2.node[7].nic.mac1609_4 	SlotsBackoff 	63
scalar Scenario2.node[7].nic.mac1609_4 	NumInternalContention 	0
scalar Scenario2.node[7].nic.mac1609_4 	totalBusyTime 	0.666185228316
scalar Scenario2.node[7].veinsmobility 	startTime 	1
scalar Scenario2.node[7].veinsmobility 	totalTime 	51
scalar Scenario2.node[7].veinsmobility 	stopTime 	53
scalar Scenario2.node[7].veinsmobility 	minSpeed 	3.4814017046965
scalar Scenario2.node[7].veinsmobility 	maxSpeed 	18.941884985482
scalar Scenario2.node[7].veinsmobility 	totalDistance 	681.4852853963
scalar Scenario2.node[7].veinsmobility 	totalCO2Emission 	169.58589405808
scalar Scenario2.node[172].appl 	generatedWSMs 	1
scalar Scenario2.node[172].appl 	receivedWSMs 	154
scalar Scenario2.node[172].appl 	generatedBSMs 	33
scalar Scenario2.node[172].appl 	receivedBSMs 	4001
scalar Scenario2.node[172].appl 	generatedWSAs 	0
scalar Scenario2.node[172].appl 	receivedWSAs 	0
scalar Scenario2.node[172].appl 	delayWSM 	0.000234204018
scalar Scenario2.node[172].appl 	Dist_Propa 	412.89212244202
scalar Scenario2.node[172].nic.phy80211p 	busyTime 	0.013852848484848
scalar Scenario2.node[172].nic.phy80211p 	ncollisions 	29
scalar Scenario2.node[172].nic.mac1609_4 	ReceivedUnicastPackets 	0
scalar Scenario2.node[172].nic.mac1609_4 	ReceivedBroadcasts 	4155
scalar Scenario2.node[172].nic.mac1609_4 	SentPackets 	34
scalar Scenario2.node[172].nic.mac1609_4 	SNIRLostPackets 	40
scalar Scenario2.node[172].nic.mac1609_4 	RXTXLostPackets 	0
scalar Scenario2.node[172].nic.mac1609_4 	TotalLostPackets 	40
scalar Scenario2.node[172].nic.mac1609_4 	DroppedPacketsInMac 	0
scalar Scenario2.node[172].nic.mac1609_4 	TooLittleTime 	0
scalar Scenario2.node[172].nic.mac1609_4 	TimesIntoBackoff 	34
scalar Scenario2.node[172].nic.mac1609_4 	SlotsBackoff 	49
scalar Scenario2.node[172].nic.mac1609_4 	NumInternalContention 	0
scalar Scenario2.node[172].nic.mac1609_4 	totalBusyTime 	0.459186
scalar Scenario2.node[172].veinsmobility 	startTime 	20
scalar Scenario2.node[172].veinsmobility 	totalTime 	32
scalar Scenario2.node[172].veinsmobility 	stopTime 	53
scalar Scenario2.node[172].veinsmobility 	minSpeed 	2.4127571361848
scalar Scenario2.node[172].veinsmobility 	maxSpeed 	18.994554119785
scalar Scenario2.node[172].veinsmobility 	totalDistance 	522.38118095875
scalar Scenario2.node[172].veinsmobility 	totalCO2Emission 	122.12195354617
scalar Scenario2.node[1].appl 	generatedWSMs 	1
scalar Scenario2.node[1].appl 	receivedWSMs 	159
scalar Scenario2.node[1].appl 	generatedBSMs 	53
scalar Scenario2.node[1].appl 	receivedBSMs 	6203
scalar Scenario2.node[1].appl 	generatedWSAs 	0
scalar Scenario2.node[1].appl 	receivedWSAs 	0
scalar Scenario2.node[1].appl 	delayWSM 	0.000234172545
scalar Scenario2.node[1].appl 	Dist_Propa 	373.92486825585
scalar Scenario2.node[1].nic.phy80211p 	busyTime 	0.013004981132075
scalar Scenario2.node[1].nic.phy80211p 	ncollisions 	34
scalar Scenario2.node[1].nic.mac1609_4 	ReceivedUnicastPackets 	0
scalar Scenario2.node[1].nic.mac1609_4 	ReceivedBroadcasts 	6362
scalar Scenario2.node[1].nic.mac1609_4 	SentPackets 	54
scalar Scenario2.node[1].nic.mac1609_4 	SNIRLostPackets 	60
scalar Scenario2.node[1].nic.mac1609_4 	RXTXLostPackets 	0
scalar Scenario2.node[1].nic.mac1609_4 	TotalLostPackets 	60
scalar Scenario2.node[1].nic.mac1609_4 	DroppedPacketsInMac 	0
scalar Scenario2.node[1].nic.mac1609_4 	TooLittleTime 	0
scalar Scenario2.node[1].nic.mac1609_4 	TimesIntoBackoff 	54
scalar Scenario2.node[1].nic.mac1609_4 	SlotsBackoff 	92
scalar Scenario2.node[1].nic.mac1609_4 	NumInternalContention 	0
scalar Scenario2.node[1].nic.mac1609_4 	totalBusyTime 	0.691846
scalar Scenario2.node[1].veinsmobility 	startTime 	1
scalar Scenario2.node[1].veinsmobility 	totalTime 	52
scalar Scenario2.node[1].veinsmobility 	stopTime 	54
scalar Scenario2.node[1].veinsmobility 	minSpeed 	3.7822135175928
scalar Scenario2.node[1].veinsmobility 	maxSpeed 	18.973847482234
scalar Scenario2.node[1].veinsmobility 	totalDistance 	704.43927912732
scalar Scenario2.node[1].veinsmobility 	totalCO2Emission 	171.29382234949
scalar Scenario2.node[0].appl 	generatedWSMs 	1
scalar Scenario2.node[0].appl 	receivedWSMs 	164
scalar Scenario2.node[0].appl 	generatedBSMs 	54
scalar Scenario2.node[0].appl 	receivedBSMs 	6408
scalar Scenario2.node[0].appl 	generatedWSAs 	0
scalar Scenario2.node[0].appl 	receivedWSAs 	0
scalar Scenario2.node[0].appl 	delayWSM 	0.00023411198
scalar Scenario2.node[0].appl 	Dist_Propa 	368.86134283626
scalar Scenario2.node[0].nic.phy80211p 	busyTime 	0.013186222222222
scalar Scenario2.node[0].nic.phy80211p 	ncollisions 	35
scalar Scenario2.node[0].nic.mac1609_4 	ReceivedUnicastPackets 	0
scalar Scenario2.node[0].nic.mac1609_4 	ReceivedBroadcasts 	6572
scalar Scenario2.node[0].nic.mac1609_4 	SentPackets 	55
scalar Scenario2.node[0].nic.mac1609_4 	SNIRLostPackets 	63
scalar Scenario2.node[0].nic.mac1609_4 	RXTXLostPackets 	0
scalar Scenario2.node[0].nic.mac1609_4 	TotalLostPackets 	63
scalar Scenario2.node[0].nic.mac1609_4 	DroppedPacketsInMac 	0
scalar Scenario2.node[0].nic.mac1609_4 	TooLittleTime 	0
scalar Scenario2.node[0].nic.mac1609_4 	TimesIntoBackoff 	55
scalar Scenario2.node[0].nic.mac1609_4 	SlotsBackoff 	80
scalar Scenario2.node[0].nic.mac1609_4 	NumInternalContention 	0
scalar Scenario2.node[0].nic.mac1609_4 	totalBusyTime 	0.714535
scalar Scenario2.node[0].veinsmobility 	startTime 	1
scalar Scenario2.node[0].veinsmobility 	totalTime 	53
scalar Scenario2.node[0].veinsmobility 	stopTime 	55
scalar Scenario2.node[0].veinsmobility 	minSpeed 	4.0518554631622
scalar Scenario2.node[0].veinsmobility 	maxSpeed 	18.978534762523
scalar Scenario2.node[0].veinsmobility 	totalDistance 	722.21584162014
scalar Scenario2.node[0].veinsmobility 	totalCO2Emission 	172.20829987187
scalar Scenario2.node[187].appl 	generatedWSMs 	1
scalar Scenario2.node[187].appl 	receivedWSMs 	170
scalar Scenario2.node[187].appl 	generatedBSMs 	32
scalar Scenario2.node[187].appl 	receivedBSMs 	3906
scalar Scenario2.node[187].appl 	generatedWSAs 	0
scalar Scenario2.node[187].appl 	receivedWSAs 	0
scalar Scenario2.node[187].appl 	delayWSM 	0.000234036738
scalar Scenario2.node[187].appl 	Dist_Propa 	291.96841030908
scalar Scenario2.node[187].nic.phy80211p 	busyTime 	0.01411175
scalar Scenario2.node[187].nic.phy80211p 	ncollisions 	34
scalar Scenario2.node[187].nic.mac1609_4 	ReceivedUnicastPackets 	0
scalar Scenario2.node[187].nic.mac1609_4 	ReceivedBroadcasts 	4076
scalar Scenario2.node[187].nic.mac1609_4 	SentPackets 	33
scalar Scenario2.node[187].nic.mac1609_4 	SNIRLostPackets 	47
scalar Scenario2.node[187].nic.mac1609_4 	RXTXLostPackets 	0
scalar Scenario2.node[187].nic.mac1609_4 	TotalLostPackets 	47
scalar Scenario2.node[187].nic.mac1609_4 	DroppedPacketsInMac 	0
scalar Scenario2.node[187].nic.mac1609_4 	TooLittleTime 	0
scalar Scenario2.node[187].nic.mac1609_4 	TimesIntoBackoff 	33
scalar Scenario2.node[187].nic.mac1609_4 	SlotsBackoff 	55
scalar Scenario2.node[187].nic.mac1609_4 	NumInternalContention 	0
scalar Scenario2.node[187].nic.mac1609_4 	totalBusyTime 	0.453305
scalar Scenario2.node[187].veinsmobility 	startTime 	24
scalar Scenario2.node[187].veinsmobility 	totalTime 	31
scalar Scenario2.node[187].veinsmobility 	stopTime 	56
scalar Scenario2.node[187].veinsmobility 	minSpeed 	3.5479495325158
scalar Scenario2.node[187].veinsmobility 	maxSpeed 	18.989325714761
scalar Scenario2.node[187].veinsmobility 	totalDistance 	512.82987526149
scalar Scenario2.node[187].veinsmobility 	totalCO2Emission 	119.00436191503
scalar Scenario2.node[59].appl 	generatedWSMs 	1
scalar Scenario2.node[59].appl 	receivedWSMs 	168
scalar Scenario2.node[59].appl 	generatedBSMs 	54
scalar Scenario2.node[59].appl 	receivedBSMs 	6583
scalar Scenario2.node[59].appl 	generatedWSAs 	0
scalar Scenario2.node[59].appl 	receivedWSAs 	0
scalar Scenario2.node[59].appl 	delayWSM 	0.000234053912
scalar Scenario2.node[59].appl 	Dist_Propa 	359.88487931988
scalar Scenario2.node[59].nic.phy80211p 	busyTime 	0.013538518518518
scalar Scenario2.node[59].nic.phy80211p 	ncollisions 	34
scalar Scenario2.node[59].nic.mac1609_4 	ReceivedUnicastPackets 	0
scalar Scenario2.node[59].nic.mac1609_4 	ReceivedBroadcasts 	6751
scalar Scenario2.node[59].nic.mac1609_4 	SentPackets 	55
scalar Scenario2.node[59].nic.mac1609_4 	SNIRLostPackets 	62
scalar Scenario2.node[59].nic.mac1609_4 	RXTXLostPackets 	0
scalar Scenario2.node[59].nic.mac1609_4 	TotalLostPackets 	62
scalar Scenario2.node[59].nic.mac1609_4 	DroppedPacketsInMac 	0
scalar Scenario2.node[59].nic.mac1609_4 	TooLittleTime 	0
scalar Scenario2.node[59].nic.mac1609_4 	TimesIntoBackoff 	55
scalar Scenario2.node[59].nic.mac1609_4 	SlotsBackoff 	87
scalar Scenario2.node[59].nic.mac1609_4 	NumInternalContention 	0
scalar Scenario2.node[59].nic.mac1609_4 	totalBusyTime 	0.733559
scalar Scenario2.node[59].veinsmobility 	startTime 	2
scalar Scenario2.node[59].veinsmobility 	totalTime 	53
scalar Scenario2.node[59].veinsmobility 	stopTime 	56
scalar Scenario2.node[59].veinsmobility 	minSpeed 	3.6013252442564
scalar Scenario2.node[59].veinsmobility 	maxSpeed 	18.987841719773
scalar Scenario2.node[59].veinsmobility 	totalDistance 	716.20343049081
scalar Scenario2.node[59].veinsmobility 	totalCO2Emission 	168.97854168429
scalar Scenario2.node[79].appl 	generatedWSMs 	1
scalar Scenario2.node[79].appl 	receivedWSMs 	172
scalar Scenario2.node[79].appl 	generatedBSMs 	53
scalar Scenario2.node[79].appl 	receivedBSMs 	6381
scalar Scenario2.node[79].appl 	generatedWSAs 	0
scalar Scenario2.node[79].appl 	receivedWSAs 	0
scalar Scenario2.node[79].appl 	delayWSM 	0.000233890471
scalar Scenario2.node[79].appl 	Dist_Propa 	338.82772823636
scalar Scenario2.node[79].nic.phy80211p 	busyTime 	0.013390188679245
scalar Scenario2.node[79].nic.phy80211p 	ncollisions 	33
scalar Scenario2.node[79].nic.mac1609_4 	ReceivedUnicastPackets 	0
scalar Scenario2.node[79].nic.mac1609_4 	ReceivedBroadcasts 	6553
scalar Scenario2.node[79].nic.mac1609_4 	SentPackets 	54
scalar Scenario2.node[79].nic.mac1609_4 	SNIRLostPackets 	53
scalar Scenario2.node[79].nic.mac1609_4 	RXTXLostPackets 	0
scalar Scenario2.node[79].nic.mac1609_4 	TotalLostPackets 	53
scalar Scenario2.node[79].nic.mac1609_4 	DroppedPacketsInMac 	0
scalar Scenario2.node[79].nic.mac1609_4 	TooLittleTime 	0
scalar Scenario2.node[79].nic.mac1609_4 	TimesIntoBackoff 	54
scalar Scenario2.node[79].nic.mac1609_4 	SlotsBackoff 	80
scalar Scenario2.node[79].nic.mac1609_4 	NumInternalContention 	0
scalar Scenario2.node[79].nic.mac1609_4 	totalBusyTime 	0.713014
scalar Scenario2.node[79].veinsmobility 	startTime 	3
scalar Scenario2.node[79].veinsmobility 	totalTime 	52
scalar Scenario2.node[79].veinsmobility 	stopTime 	56
scalar Scenario2.node[79].veinsmobility 	minSpeed 	2.4267099683262
scalar Scenario2.node[79].veinsmobility 	maxSpeed 	18.985454387709
scalar Scenario2.node[79].veinsmobility 	totalDistance 	605.76482859178
scalar Scenario2.node[79].veinsmobility 	totalCO2Emission 	160.49542827298
scalar Scenario2.node[184].appl 	generatedWSMs 	1
scalar Scenario2.node[184].appl 	receivedWSMs 	178
scalar Scenario2.node[184].appl 	generatedBSMs 	34
scalar Scenario2.node[184].appl 	receivedBSMs 	4297
scalar Scenario2.node[184].appl 	generatedWSAs 	0
scalar Scenario2.node[184].appl 	receivedWSAs 	0
scalar Scenario2.node[184].appl 	delayWSM 	0.000233977651
scalar Scenario2.node[184].appl 	Dist_Propa 	240.9288554728
scalar Scenario2.node[184].nic.phy80211p 	busyTime 	0.014534588235294
scalar Scenario2.node[184].nic.phy80211p 	ncollisions 	34
scalar Scenario2.node[184].nic.mac1609_4 	ReceivedUnicastPackets 	0
scalar Scenario2.node[184].nic.mac1609_4 	ReceivedBroadcasts 	4475
scalar Scenario2.node[184].nic.mac1609_4 	SentPackets 	35
scalar Scenario2.node[184].nic.mac1609_4 	SNIRLostPackets 	49
scalar Scenario2.node[184].nic.mac1609_4 	RXTXLostPackets 	0
scalar Scenario2.node[184].nic.mac1609_4 	TotalLostPackets 	49
scalar Scenario2.node[184].nic.mac1609_4 	DroppedPacketsInMac 	0
scalar Scenario2.node[184].nic.mac1609_4 	TooLittleTime 	0
scalar Scenario2.node[184].nic.mac1609_4 	TimesIntoBackoff 	35
scalar Scenario2.node[184].nic.mac1609_4 	SlotsBackoff 	52
scalar Scenario2.node[184].nic.mac1609_4 	NumInternalContention 	0
scalar Scenario2.node[184].nic.mac1609_4 	totalBusyTime 	0.495907
scalar Scenario2.node[184].veinsmobility 	startTime 	23
scalar Scenario2.node[184].veinsmobility 	totalTime 	33
scalar Scenario2.node[184].veinsmobility 	stopTime 	57
scalar Scenario2.node[184].veinsmobility 	minSpeed 	1.4962625184391
scalar Scenario2.node[184].veinsmobility 	maxSpeed 	18.979892871417
scalar Scenario2.node[184].veinsmobility 	totalDistance 	514.97323348459
scalar Scenario2.node[184].veinsmobility 	totalCO2Emission 	122.9472972326
scalar Scenario2.node[13].appl 	generatedWSMs 	1
scalar Scenario2.node[13].appl 	receivedWSMs 	177
scalar Scenario2.node[13].appl 	generatedBSMs 	56
scalar Scenario2.node[13].appl 	receivedBSMs 	6825
scalar Scenario2.node[13].appl 	generatedWSAs 	0
scalar Scenario2.node[13].appl 	receivedWSAs 	0
scalar Scenario2.node[13].appl 	delayWSM 	0.000233998273
scalar Scenario2.node[13].appl 	Dist_Propa 	346.03759280342
scalar Scenario2.node[13].nic.phy80211p 	busyTime 	0.013539428571428
scalar Scenario2.node[13].nic.phy80211p 	ncollisions 	31
scalar Scenario2.node[13].nic.mac1609_4 	ReceivedUnicastPackets 	0
scalar Scenario2.node[13].nic.mac1609_4 	ReceivedBroadcasts 	7002
scalar Scenario2.node[13].nic.mac1609_4 	SentPackets 	57
scalar Scenario2.node[13].nic.mac1609_4 	SNIRLostPackets 	62
scalar Scenario2.node[13].nic.mac1609_4 	RXTXLostPackets 	0
scalar Scenario2.node[13].nic.mac1609_4 	TotalLostPackets 	62
scalar Scenario2.node[13].nic.mac1609_4 	DroppedPacketsInMac 	0
scalar Scenario2.node[13].nic.mac1609_4 	TooLittleTime 	0
scalar Scenario2.node[13].nic.mac1609_4 	TimesIntoBackoff 	57
scalar Scenario2.node[13].nic.mac1609_4 	SlotsBackoff 	103
scalar Scenario2.node[13].nic.mac1609_4 	NumInternalContention 	0
scalar Scenario2.node[13].nic.mac1609_4 	totalBusyTime 	0.760585
scalar Scenario2.node[13].veinsmobility 	startTime 	1
scalar Scenario2.node[13].veinsmobility 	totalTime 	55
scalar Scenario2.node[13].veinsmobility 	stopTime 	57
scalar Scenario2.node[13].veinsmobility 	minSpeed 	3.7319341546602
scalar Scenario2.node[13].veinsmobility 	maxSpeed 	18.914364551105
scalar Scenario2.node[13].veinsmobility 	totalDistance 	760.32197011235
scalar Scenario2.node[13].veinsmobility 	totalCO2Emission 	178.60946014272
scalar Scenario2.node[168].appl 	generatedWSMs 	1
scalar Scenario2.node[168].appl 	receivedWSMs 	182
scalar Scenario2.node[168].appl 	generatedBSMs 	38
scalar Scenario2.node[168].appl 	receivedBSMs 	4998
scalar Scenario2.node[168].appl 	generatedWSAs 	0
scalar Scenario2.node[168].appl 	receivedWSAs 	0
scalar Scenario2.node[168].appl 	delayWSM 	0.000233933856
scalar Scenario2.node[168].appl 	Dist_Propa 	210.0910704294
scalar Scenario2.node[168].nic.phy80211p 	busyTime 	0.014950315789473
scalar Scenario2.node[168].nic.phy80211p 	ncollisions 	32
scalar Scenario2.node[168].nic.mac1609_4 	ReceivedUnicastPackets 	0
scalar Scenario2.node[168].nic.mac1609_4 	ReceivedBroadcasts 	5180
scalar Scenario2.node[168].nic.mac1609_4 	SentPackets 	39
scalar Scenario2.node[168].nic.mac1609_4 	SNIRLostPackets 	50
scalar Scenario2.node[168].nic.mac1609_4 	RXTXLostPackets 	0
scalar Scenario2.node[168].nic.mac1609_4 	TotalLostPackets 	50
scalar Scenario2.node[168].nic.mac1609_4 	DroppedPacketsInMac 	0
scalar Scenario2.node[168].nic.mac1609_4 	TooLittleTime 	0
scalar Scenario2.node[168].nic.mac1609_4 	TimesIntoBackoff 	39
scalar Scenario2.node[168].nic.mac1609_4 	SlotsBackoff 	50
scalar Scenario2.node[168].nic.mac1609_4 	NumInternalContention 	0
scalar Scenario2.node[168].nic.mac1609_4 	totalBusyTime 	0.569951000533
scalar Scenario2.node[168].veinsmobility 	startTime 	20
scalar Scenario2.node[168].veinsmobility 	totalTime 	37
scalar Scenario2.node[168].veinsmobility 	stopTime 	58
scalar Scenario2.node[168].veinsmobility 	minSpeed 	0
scalar Scenario2.node[168].veinsmobility 	maxSpeed 	18.968500454263
scalar Scenario2.node[168].veinsmobility 	totalDistance 	523.20473672205
scalar Scenario2.node[168].veinsmobility 	totalCO2Emission 	132.34195669029
scalar Scenario2.node[9].appl 	generatedWSMs 	1
scalar Scenario2.node[9].appl 	receivedWSMs 	181
scalar Scenario2.node[9].appl 	generatedBSMs 	58
scalar Scenario2.node[9].appl 	receivedBSMs 	7031
scalar Scenario2.node[9].appl 	generatedWSAs 	0
scalar Scenario2.node[9].appl 	receivedWSAs 	0
scalar Scenario2.node[9].appl 	delayWSM 	0.000233944725
scalar Scenario2.node[9].appl 	Dist_Propa 	337.97496410198
scalar Scenario2.node[9].nic.phy80211p 	busyTime 	0.013434620689655
scalar Scenario2.node[9].nic.phy80211p 	ncollisions 	30
scalar Scenario2.node[9].nic.mac1609_4 	ReceivedUnicastPackets 	0
scalar Scenario2.node[9].nic.mac1609_4 	ReceivedBroadcasts 	7212
scalar Scenario2.node[9].nic.mac1609_4 	SentPackets 	59
scalar Scenario2.node[9].nic.mac1609_4 	SNIRLostPackets 	49
scalar Scenario2.node[9].nic.mac1609_4 	RXTXLostPackets 	14
scalar Scenario2.node[9].nic.mac1609_4 	TotalLostPackets 	63
scalar Scenario2.node[9].nic.mac1609_4 	DroppedPacketsInMac 	0
scalar Scenario2.node[9].nic.mac1609_4 	TooLittleTime 	0
scalar Scenario2.node[9].nic.mac1609_4 	TimesIntoBackoff 	59
scalar Scenario2.node[9].nic.mac1609_4 	SlotsBackoff 	81
scalar Scenario2.node[9].nic.mac1609_4 	NumInternalContention 	0
scalar Scenario2.node[9].nic.mac1609_4 	totalBusyTime 	0.783043
scalar Scenario2.node[9].veinsmobility 	startTime 	1
scalar Scenario2.node[9].veinsmobility 	totalTime 	57
scalar Scenario2.node[9].veinsmobility 	stopTime 	59
scalar Scenario2.node[9].veinsmobility 	minSpeed 	3.932047590691
scalar Scenario2.node[9].veinsmobility 	maxSpeed 	18.958448226
scalar Scenario2.node[9].veinsmobility 	totalDistance 	820.05985265805
scalar Scenario2.node[9].veinsmobility 	totalCO2Emission 	196.30053678776
scalar Scenario2.node[156].appl 	generatedWSMs 	1
scalar Scenario2.node[156].appl 	receivedWSMs 	183
scalar Scenario2.node[156].appl 	generatedBSMs 	42
scalar Scenario2.node[156].appl 	receivedBSMs 	5663
scalar Scenario2.node[156].appl 	generatedWSAs 	0
scalar Scenario2.node[156].appl 	receivedWSAs 	0
scalar Scenario2.node[156].appl 	delayWSM 	0.00023389665
scalar Scenario2.node[156].appl 	Dist_Propa 	174.27309324895
scalar Scenario2.node[156].nic.phy80211p 	busyTime 	0.015188571428571
scalar Scenario2.node[156].nic.phy80211p 	ncollisions 	33
scalar Scenario2.node[156].nic.mac1609_4 	ReceivedUnicastPackets 	0
scalar Scenario2.node[156].nic.mac1609_4 	ReceivedBroadcasts 	5846
scalar Scenario2.node[156].nic.mac1609_4 	SentPackets 	43
scalar Scenario2.node[156].nic.mac1609_4 	SNIRLostPackets 	54
scalar Scenario2.node[156].nic.mac1609_4 	RXTXLostPackets 	0
scalar Scenario2.node[156].nic.mac1609_4 	TotalLostPackets 	54
scalar Scenario2.node[156].nic.mac1609_4 	DroppedPacketsInMac 	0
scalar Scenario2.node[156].nic.mac1609_4 	TooLittleTime 	0
[...]
scalar Scenario2.node[251].nic.mac1609_4 	TotalLostPackets 	0
scalar Scenario2.node[251].nic.mac1609_4 	DroppedPacketsInMac 	0
scalar Scenario2.node[251].nic.mac1609_4 	TooLittleTime 	0
scalar Scenario2.node[251].nic.mac1609_4 	TimesIntoBackoff 	8
scalar Scenario2.node[251].nic.mac1609_4 	SlotsBackoff 	8
scalar Scenario2.node[251].nic.mac1609_4 	NumInternalContention 	0
scalar Scenario2.node[251].nic.mac1609_4 	totalBusyTime 	0.01612
scalar Scenario2.node[251].veinsmobility 	startTime 	53
scalar Scenario2.node[251].veinsmobility 	totalTime 	7
scalar Scenario2.node[251].veinsmobility 	stopTime 	60
scalar Scenario2.node[251].veinsmobility 	minSpeed 	3.3749732255289
scalar Scenario2.node[251].veinsmobility 	maxSpeed 	14.969494598986
scalar Scenario2.node[251].veinsmobility 	totalDistance 	58.638704761298
scalar Scenario2.node[251].veinsmobility 	totalCO2Emission 	38.710387034317
scalar Scenario2.node[254].appl 	generatedWSMs 	1
scalar Scenario2.node[254].appl 	receivedWSMs 	2
scalar Scenario2.node[254].appl 	generatedBSMs 	5
scalar Scenario2.node[254].appl 	receivedBSMs 	94
scalar Scenario2.node[254].appl 	generatedWSAs 	0
scalar Scenario2.node[254].appl 	receivedWSAs 	0
scalar Scenario2.node[254].appl 	delayWSM 	25.181836909164
scalar Scenario2.node[254].appl 	Dist_Propa 	411.94061983462
scalar Scenario2.node[254].nic.phy80211p 	busyTime 	0.002048
scalar Scenario2.node[254].nic.phy80211p 	ncollisions 	0
scalar Scenario2.node[254].nic.mac1609_4 	ReceivedUnicastPackets 	0
scalar Scenario2.node[254].nic.mac1609_4 	ReceivedBroadcasts 	96
scalar Scenario2.node[254].nic.mac1609_4 	SentPackets 	6
scalar Scenario2.node[254].nic.mac1609_4 	SNIRLostPackets 	0
scalar Scenario2.node[254].nic.mac1609_4 	RXTXLostPackets 	0
scalar Scenario2.node[254].nic.mac1609_4 	TotalLostPackets 	0
scalar Scenario2.node[254].nic.mac1609_4 	DroppedPacketsInMac 	0
scalar Scenario2.node[254].nic.mac1609_4 	TooLittleTime 	0
scalar Scenario2.node[254].nic.mac1609_4 	TimesIntoBackoff 	6
scalar Scenario2.node[254].nic.mac1609_4 	SlotsBackoff 	7
scalar Scenario2.node[254].nic.mac1609_4 	NumInternalContention 	0
scalar Scenario2.node[254].nic.mac1609_4 	totalBusyTime 	0.010998
scalar Scenario2.node[254].veinsmobility 	startTime 	55
scalar Scenario2.node[254].veinsmobility 	totalTime 	5
scalar Scenario2.node[254].veinsmobility 	stopTime 	60
scalar Scenario2.node[254].veinsmobility 	minSpeed 	4.1467374746261
scalar Scenario2.node[254].veinsmobility 	maxSpeed 	11.606694836134
scalar Scenario2.node[254].veinsmobility 	totalDistance 	34.638113438887
scalar Scenario2.node[254].veinsmobility 	totalCO2Emission 	22.250403430648
scalar Scenario2.node[255].appl 	generatedWSMs 	1
scalar Scenario2.node[255].appl 	receivedWSMs 	2
scalar Scenario2.node[255].appl 	generatedBSMs 	4
scalar Scenario2.node[255].appl 	receivedBSMs 	75
scalar Scenario2.node[255].appl 	generatedWSAs 	0
scalar Scenario2.node[255].appl 	receivedWSAs 	0
scalar Scenario2.node[255].appl 	delayWSM 	25.181836923309
scalar Scenario2.node[255].appl 	Dist_Propa 	197.95618134686
scalar Scenario2.node[255].nic.phy80211p 	busyTime 	0.002066
scalar Scenario2.node[255].nic.phy80211p 	ncollisions 	0
scalar Scenario2.node[255].nic.mac1609_4 	ReceivedUnicastPackets 	0
scalar Scenario2.node[255].nic.mac1609_4 	ReceivedBroadcasts 	77
scalar Scenario2.node[255].nic.mac1609_4 	SentPackets 	5
scalar Scenario2.node[255].nic.mac1609_4 	SNIRLostPackets 	0
scalar Scenario2.node[255].nic.mac1609_4 	RXTXLostPackets 	0
scalar Scenario2.node[255].nic.mac1609_4 	TotalLostPackets 	0
scalar Scenario2.node[255].nic.mac1609_4 	DroppedPacketsInMac 	0
scalar Scenario2.node[255].nic.mac1609_4 	TooLittleTime 	0
scalar Scenario2.node[255].nic.mac1609_4 	TimesIntoBackoff 	5
scalar Scenario2.node[255].nic.mac1609_4 	SlotsBackoff 	8
scalar Scenario2.node[255].nic.mac1609_4 	NumInternalContention 	0
scalar Scenario2.node[255].nic.mac1609_4 	totalBusyTime 	0.008917
scalar Scenario2.node[255].veinsmobility 	startTime 	56
scalar Scenario2.node[255].veinsmobility 	totalTime 	4
scalar Scenario2.node[255].veinsmobility 	stopTime 	60
scalar Scenario2.node[255].veinsmobility 	minSpeed 	2.4095380588329
scalar Scenario2.node[255].veinsmobility 	maxSpeed 	8.1382013312156
scalar Scenario2.node[255].veinsmobility 	totalDistance 	17.782100549166
scalar Scenario2.node[255].veinsmobility 	totalCO2Emission 	12.921392037435
scalar Scenario2.node[258].appl 	generatedWSMs 	0
scalar Scenario2.node[258].appl 	receivedWSMs 	2
scalar Scenario2.node[258].appl 	generatedBSMs 	2
scalar Scenario2.node[258].appl 	receivedBSMs 	35
scalar Scenario2.node[258].appl 	generatedWSAs 	0
scalar Scenario2.node[258].appl 	receivedWSAs 	0
scalar Scenario2.node[258].appl 	delayWSM 	27.307609077841
scalar Scenario2.node[258].appl 	Dist_Propa 	368.22529846143
scalar Scenario2.node[258].nic.phy80211p 	busyTime 	0.002052
scalar Scenario2.node[258].nic.phy80211p 	ncollisions 	0
scalar Scenario2.node[258].nic.mac1609_4 	ReceivedUnicastPackets 	0
scalar Scenario2.node[258].nic.mac1609_4 	ReceivedBroadcasts 	37
scalar Scenario2.node[258].nic.mac1609_4 	SentPackets 	2
scalar Scenario2.node[258].nic.mac1609_4 	SNIRLostPackets 	0
scalar Scenario2.node[258].nic.mac1609_4 	RXTXLostPackets 	0
scalar Scenario2.node[258].nic.mac1609_4 	TotalLostPackets 	0
scalar Scenario2.node[258].nic.mac1609_4 	DroppedPacketsInMac 	0
scalar Scenario2.node[258].nic.mac1609_4 	TooLittleTime 	0
scalar Scenario2.node[258].nic.mac1609_4 	TimesIntoBackoff 	2
scalar Scenario2.node[258].nic.mac1609_4 	SlotsBackoff 	3
scalar Scenario2.node[258].nic.mac1609_4 	NumInternalContention 	0
scalar Scenario2.node[258].nic.mac1609_4 	totalBusyTime 	0.004314
scalar Scenario2.node[258].veinsmobility 	startTime 	58
scalar Scenario2.node[258].veinsmobility 	totalTime 	2
scalar Scenario2.node[258].veinsmobility 	stopTime 	60
scalar Scenario2.node[258].veinsmobility 	minSpeed 	2.7294526099854
scalar Scenario2.node[258].veinsmobility 	maxSpeed 	4.5797816218155
scalar Scenario2.node[258].veinsmobility 	totalDistance 	5.6359190073888
scalar Scenario2.node[258].veinsmobility 	totalCO2Emission 	3.3820611870713
scalar Scenario2.node[130].appl 	generatedWSMs 	1
scalar Scenario2.node[130].appl 	receivedWSMs 	146
scalar Scenario2.node[130].appl 	generatedBSMs 	48
scalar Scenario2.node[130].appl 	receivedBSMs 	6208
scalar Scenario2.node[130].appl 	generatedWSAs 	0
scalar Scenario2.node[130].appl 	receivedWSAs 	0
scalar Scenario2.node[130].appl 	delayWSM 	2.010745970572
scalar Scenario2.node[130].appl 	Dist_Propa 	799.0538509578
scalar Scenario2.node[130].nic.phy80211p 	busyTime 	0.014304999999999
scalar Scenario2.node[130].nic.phy80211p 	ncollisions 	32
scalar Scenario2.node[130].nic.mac1609_4 	ReceivedUnicastPackets 	0
scalar Scenario2.node[130].nic.mac1609_4 	ReceivedBroadcasts 	6354
scalar Scenario2.node[130].nic.mac1609_4 	SentPackets 	49
scalar Scenario2.node[130].nic.mac1609_4 	SNIRLostPackets 	60
scalar Scenario2.node[130].nic.mac1609_4 	RXTXLostPackets 	0
scalar Scenario2.node[130].nic.mac1609_4 	TotalLostPackets 	60
scalar Scenario2.node[130].nic.mac1609_4 	DroppedPacketsInMac 	0
scalar Scenario2.node[130].nic.mac1609_4 	TooLittleTime 	0
scalar Scenario2.node[130].nic.mac1609_4 	TimesIntoBackoff 	49
scalar Scenario2.node[130].nic.mac1609_4 	SlotsBackoff 	78
scalar Scenario2.node[130].nic.mac1609_4 	NumInternalContention 	0
scalar Scenario2.node[130].nic.mac1609_4 	totalBusyTime 	0.688617
scalar Scenario2.node[130].veinsmobility 	startTime 	12
scalar Scenario2.node[130].veinsmobility 	totalTime 	48
scalar Scenario2.node[130].veinsmobility 	stopTime 	60
scalar Scenario2.node[130].veinsmobility 	minSpeed 	3.257133028099
scalar Scenario2.node[130].veinsmobility 	maxSpeed 	18.999128500514
scalar Scenario2.node[130].veinsmobility 	totalDistance 	661.78815505913
scalar Scenario2.node[130].veinsmobility 	totalCO2Emission 	179.96048440599
scalar Scenario2.node[262].appl 	generatedWSMs 	0
scalar Scenario2.node[262].appl 	receivedWSMs 	0
scalar Scenario2.node[262].appl 	generatedBSMs 	0
scalar Scenario2.node[262].appl 	receivedBSMs 	0
scalar Scenario2.node[262].appl 	generatedWSAs 	0
scalar Scenario2.node[262].appl 	receivedWSAs 	0
scalar Scenario2.node[262].appl 	delayWSM 	-1
scalar Scenario2.node[262].appl 	Dist_Propa 	-1
scalar Scenario2.node[262].nic.phy80211p 	busyTime 	-nan
scalar Scenario2.node[262].nic.phy80211p 	ncollisions 	0
scalar Scenario2.node[262].nic.mac1609_4 	ReceivedUnicastPackets 	0
scalar Scenario2.node[262].nic.mac1609_4 	ReceivedBroadcasts 	0
scalar Scenario2.node[262].nic.mac1609_4 	SentPackets 	0
scalar Scenario2.node[262].nic.mac1609_4 	SNIRLostPackets 	0
scalar Scenario2.node[262].nic.mac1609_4 	RXTXLostPackets 	0
scalar Scenario2.node[262].nic.mac1609_4 	TotalLostPackets 	0
scalar Scenario2.node[262].nic.mac1609_4 	DroppedPacketsInMac 	0
scalar Scenario2.node[262].nic.mac1609_4 	TooLittleTime 	0
scalar Scenario2.node[262].nic.mac1609_4 	TimesIntoBackoff 	0
scalar Scenario2.node[262].nic.mac1609_4 	SlotsBackoff 	0
scalar Scenario2.node[262].nic.mac1609_4 	NumInternalContention 	0
scalar Scenario2.node[262].nic.mac1609_4 	totalBusyTime 	0
scalar Scenario2.node[262].veinsmobility 	startTime 	60
scalar Scenario2.node[262].veinsmobility 	totalTime 	0
scalar Scenario2.node[262].veinsmobility 	stopTime 	60
scalar Scenario2.node[262].veinsmobility 	totalDistance 	0
scalar Scenario2.node[262].veinsmobility 	totalCO2Emission 	0
scalar Scenario2.node[136].appl 	generatedWSMs 	1
scalar Scenario2.node[136].appl 	receivedWSMs 	144
scalar Scenario2.node[136].appl 	generatedBSMs 	46
scalar Scenario2.node[136].appl 	receivedBSMs 	5931
scalar Scenario2.node[136].appl 	generatedWSAs 	0
scalar Scenario2.node[136].appl 	receivedWSAs 	0
scalar Scenario2.node[136].appl 	delayWSM 	2.01074608319
scalar Scenario2.node[136].appl 	Dist_Propa 	833.05445866411
scalar Scenario2.node[136].nic.phy80211p 	busyTime 	0.014262434782608
scalar Scenario2.node[136].nic.phy80211p 	ncollisions 	27
scalar Scenario2.node[136].nic.mac1609_4 	ReceivedUnicastPackets 	0
scalar Scenario2.node[136].nic.mac1609_4 	ReceivedBroadcasts 	6075
scalar Scenario2.node[136].nic.mac1609_4 	SentPackets 	47
scalar Scenario2.node[136].nic.mac1609_4 	SNIRLostPackets 	50
scalar Scenario2.node[136].nic.mac1609_4 	RXTXLostPackets 	0
scalar Scenario2.node[136].nic.mac1609_4 	TotalLostPackets 	50
scalar Scenario2.node[136].nic.mac1609_4 	DroppedPacketsInMac 	0
scalar Scenario2.node[136].nic.mac1609_4 	TooLittleTime 	0
scalar Scenario2.node[136].nic.mac1609_4 	TimesIntoBackoff 	47
scalar Scenario2.node[136].nic.mac1609_4 	SlotsBackoff 	58
scalar Scenario2.node[136].nic.mac1609_4 	NumInternalContention 	0
scalar Scenario2.node[136].nic.mac1609_4 	totalBusyTime 	0.658487
scalar Scenario2.node[136].veinsmobility 	startTime 	14
scalar Scenario2.node[136].veinsmobility 	totalTime 	46
scalar Scenario2.node[136].veinsmobility 	stopTime 	60
scalar Scenario2.node[136].veinsmobility 	minSpeed 	3.4777492481221
scalar Scenario2.node[136].veinsmobility 	maxSpeed 	18.986348388898
scalar Scenario2.node[136].veinsmobility 	totalDistance 	641.93276437025
scalar Scenario2.node[136].veinsmobility 	totalCO2Emission 	170.05792350486
scalar Scenario2.node[154].appl 	generatedWSMs 	1
scalar Scenario2.node[154].appl 	receivedWSMs 	132
scalar Scenario2.node[154].appl 	generatedBSMs 	44
scalar Scenario2.node[154].appl 	receivedBSMs 	5660
scalar Scenario2.node[154].appl 	generatedWSAs 	0
scalar Scenario2.node[154].appl 	receivedWSAs 	0
scalar Scenario2.node[154].appl 	delayWSM 	2.010746190489
scalar Scenario2.node[154].appl 	Dist_Propa 	869.31229303993
scalar Scenario2.node[154].nic.phy80211p 	busyTime 	0.014187999999999
scalar Scenario2.node[154].nic.phy80211p 	ncollisions 	22
scalar Scenario2.node[154].nic.mac1609_4 	ReceivedUnicastPackets 	0
scalar Scenario2.node[154].nic.mac1609_4 	ReceivedBroadcasts 	5792
scalar Scenario2.node[154].nic.mac1609_4 	SentPackets 	45
scalar Scenario2.node[154].nic.mac1609_4 	SNIRLostPackets 	42
scalar Scenario2.node[154].nic.mac1609_4 	RXTXLostPackets 	0
scalar Scenario2.node[154].nic.mac1609_4 	TotalLostPackets 	42
scalar Scenario2.node[154].nic.mac1609_4 	DroppedPacketsInMac 	0
scalar Scenario2.node[154].nic.mac1609_4 	TooLittleTime 	0
scalar Scenario2.node[154].nic.mac1609_4 	TimesIntoBackoff 	46
scalar Scenario2.node[154].nic.mac1609_4 	SlotsBackoff 	82
scalar Scenario2.node[154].nic.mac1609_4 	NumInternalContention 	0
scalar Scenario2.node[154].nic.mac1609_4 	totalBusyTime 	0.626789
scalar Scenario2.node[154].veinsmobility 	startTime 	16
scalar Scenario2.node[154].veinsmobility 	totalTime 	44
scalar Scenario2.node[154].veinsmobility 	stopTime 	60
scalar Scenario2.node[154].veinsmobility 	minSpeed 	4.2176943966643
scalar Scenario2.node[154].veinsmobility 	maxSpeed 	18.990893175832
scalar Scenario2.node[154].veinsmobility 	totalDistance 	622.58382803624
scalar Scenario2.node[154].veinsmobility 	totalCO2Emission 	160.43838939463
scalar Scenario2.node[159].appl 	generatedWSMs 	1
scalar Scenario2.node[159].appl 	receivedWSMs 	118
scalar Scenario2.node[159].appl 	generatedBSMs 	43
scalar Scenario2.node[159].appl 	receivedBSMs 	5405
scalar Scenario2.node[159].appl 	generatedWSAs 	0
scalar Scenario2.node[159].appl 	receivedWSAs 	0
scalar Scenario2.node[159].appl 	delayWSM 	2.010746296689
scalar Scenario2.node[159].appl 	Dist_Propa 	898.98915918789
scalar Scenario2.node[159].nic.phy80211p 	busyTime 	0.013801488372092
scalar Scenario2.node[159].nic.phy80211p 	ncollisions 	15
scalar Scenario2.node[159].nic.mac1609_4 	ReceivedUnicastPackets 	0
scalar Scenario2.node[159].nic.mac1609_4 	ReceivedBroadcasts 	5523
scalar Scenario2.node[159].nic.mac1609_4 	SentPackets 	44
scalar Scenario2.node[159].nic.mac1609_4 	SNIRLostPackets 	32
scalar Scenario2.node[159].nic.mac1609_4 	RXTXLostPackets 	0
scalar Scenario2.node[159].nic.mac1609_4 	TotalLostPackets 	32
scalar Scenario2.node[159].nic.mac1609_4 	DroppedPacketsInMac 	0
scalar Scenario2.node[159].nic.mac1609_4 	TooLittleTime 	0
scalar Scenario2.node[159].nic.mac1609_4 	TimesIntoBackoff 	44
scalar Scenario2.node[159].nic.mac1609_4 	SlotsBackoff 	57
scalar Scenario2.node[159].nic.mac1609_4 	NumInternalContention 	0
scalar Scenario2.node[159].nic.mac1609_4 	totalBusyTime 	0.596188
scalar Scenario2.node[159].veinsmobility 	startTime 	17
scalar Scenario2.node[159].veinsmobility 	totalTime 	43
scalar Scenario2.node[159].veinsmobility 	stopTime 	60
scalar Scenario2.node[159].veinsmobility 	minSpeed 	2.7087925310453
scalar Scenario2.node[159].veinsmobility 	maxSpeed 	18.998727781165
scalar Scenario2.node[159].veinsmobility 	totalDistance 	610.69359653895
scalar Scenario2.node[159].veinsmobility 	totalCO2Emission 	176.20026950234
scalar Scenario2.node[167].appl 	generatedWSMs 	1
scalar Scenario2.node[167].appl 	receivedWSMs 	106
scalar Scenario2.node[167].appl 	generatedBSMs 	41
scalar Scenario2.node[167].appl 	receivedBSMs 	5132
scalar Scenario2.node[167].appl 	generatedWSAs 	0
scalar Scenario2.node[167].appl 	receivedWSAs 	0
scalar Scenario2.node[167].appl 	delayWSM 	2.010746392743
scalar Scenario2.node[167].appl 	Dist_Propa 	930.56945363373
scalar Scenario2.node[167].nic.phy80211p 	busyTime 	0.013687804878048
scalar Scenario2.node[167].nic.phy80211p 	ncollisions 	11
scalar Scenario2.node[167].nic.mac1609_4 	ReceivedUnicastPackets 	0
scalar Scenario2.node[167].nic.mac1609_4 	ReceivedBroadcasts 	5238
scalar Scenario2.node[167].nic.mac1609_4 	SentPackets 	42
scalar Scenario2.node[167].nic.mac1609_4 	SNIRLostPackets 	24
scalar Scenario2.node[167].nic.mac1609_4 	RXTXLostPackets 	0
scalar Scenario2.node[167].nic.mac1609_4 	TotalLostPackets 	24
scalar Scenario2.node[167].nic.mac1609_4 	DroppedPacketsInMac 	0
scalar Scenario2.node[167].nic.mac1609_4 	TooLittleTime 	0
scalar Scenario2.node[167].nic.mac1609_4 	TimesIntoBackoff 	42
scalar Scenario2.node[167].nic.mac1609_4 	SlotsBackoff 	75
scalar Scenario2.node[167].nic.mac1609_4 	NumInternalContention 	0
scalar Scenario2.node[167].nic.mac1609_4 	totalBusyTime 	0.564386
scalar Scenario2.node[167].veinsmobility 	startTime 	19
scalar Scenario2.node[167].veinsmobility 	totalTime 	41
scalar Scenario2.node[167].veinsmobility 	stopTime 	60
scalar Scenario2.node[167].veinsmobility 	minSpeed 	3.3557482195866
scalar Scenario2.node[167].veinsmobility 	maxSpeed 	18.999923923542
scalar Scenario2.node[167].veinsmobility 	totalDistance 	604.47872223042
scalar Scenario2.node[167].veinsmobility 	totalCO2Emission 	148.9181485535
scalar Scenario2.node[175].appl 	generatedWSMs 	1
scalar Scenario2.node[175].appl 	receivedWSMs 	88
scalar Scenario2.node[175].appl 	generatedBSMs 	39
scalar Scenario2.node[175].appl 	receivedBSMs 	4745
scalar Scenario2.node[175].appl 	generatedWSAs 	0
scalar Scenario2.node[175].appl 	receivedWSAs 	0
scalar Scenario2.node[175].appl 	delayWSM 	2.010746528751
scalar Scenario2.node[175].appl 	Dist_Propa 	970.26295172074
scalar Scenario2.node[175].nic.phy80211p 	busyTime 	0.013239999999999
scalar Scenario2.node[175].nic.phy80211p 	ncollisions 	10
scalar Scenario2.node[175].nic.mac1609_4 	ReceivedUnicastPackets 	0
scalar Scenario2.node[175].nic.mac1609_4 	ReceivedBroadcasts 	4833
scalar Scenario2.node[175].nic.mac1609_4 	SentPackets 	40
scalar Scenario2.node[175].nic.mac1609_4 	SNIRLostPackets 	20
scalar Scenario2.node[175].nic.mac1609_4 	RXTXLostPackets 	0
scalar Scenario2.node[175].nic.mac1609_4 	TotalLostPackets 	20
scalar Scenario2.node[175].nic.mac1609_4 	DroppedPacketsInMac 	0
scalar Scenario2.node[175].nic.mac1609_4 	TooLittleTime 	0
scalar Scenario2.node[175].nic.mac1609_4 	TimesIntoBackoff 	40
scalar Scenario2.node[175].nic.mac1609_4 	SlotsBackoff 	62
scalar Scenario2.node[175].nic.mac1609_4 	NumInternalContention 	0
scalar Scenario2.node[175].nic.mac1609_4 	totalBusyTime 	0.519648
scalar Scenario2.node[175].veinsmobility 	startTime 	21
scalar Scenario2.node[175].veinsmobility 	totalTime 	39
scalar Scenario2.node[175].veinsmobility 	stopTime 	60
scalar Scenario2.node[175].veinsmobility 	minSpeed 	3.5815561515633
scalar Scenario2.node[175].veinsmobility 	maxSpeed 	18.991335381207
scalar Scenario2.node[175].veinsmobility 	totalDistance 	585.24651030782
scalar Scenario2.node[175].veinsmobility 	totalCO2Emission 	140.10945338174
scalar Scenario2.node[177].appl 	generatedWSMs 	1
scalar Scenario2.node[177].appl 	receivedWSMs 	69
scalar Scenario2.node[177].appl 	generatedBSMs 	38
scalar Scenario2.node[177].appl 	receivedBSMs 	4505
scalar Scenario2.node[177].appl 	generatedWSAs 	0
scalar Scenario2.node[177].appl 	receivedWSAs 	0
scalar Scenario2.node[177].appl 	delayWSM 	2.011999645316
scalar Scenario2.node[177].appl 	Dist_Propa 	997.68764336848
scalar Scenario2.node[177].nic.phy80211p 	busyTime 	0.012801263157894
scalar Scenario2.node[177].nic.phy80211p 	ncollisions 	8
scalar Scenario2.node[177].nic.mac1609_4 	ReceivedUnicastPackets 	0
scalar Scenario2.node[177].nic.mac1609_4 	ReceivedBroadcasts 	4574
scalar Scenario2.node[177].nic.mac1609_4 	SentPackets 	39
scalar Scenario2.node[177].nic.mac1609_4 	SNIRLostPackets 	16
scalar Scenario2.node[177].nic.mac1609_4 	RXTXLostPackets 	0
scalar Scenario2.node[177].nic.mac1609_4 	TotalLostPackets 	16
scalar Scenario2.node[177].nic.mac1609_4 	DroppedPacketsInMac 	0
scalar Scenario2.node[177].nic.mac1609_4 	TooLittleTime 	0
scalar Scenario2.node[177].nic.mac1609_4 	TimesIntoBackoff 	39
scalar Scenario2.node[177].nic.mac1609_4 	SlotsBackoff 	51
scalar Scenario2.node[177].nic.mac1609_4 	NumInternalContention 	0
scalar Scenario2.node[177].nic.mac1609_4 	totalBusyTime 	0.489839
scalar Scenario2.node[177].veinsmobility 	startTime 	22
scalar Scenario2.node[177].veinsmobility 	totalTime 	38
scalar Scenario2.node[177].veinsmobility 	stopTime 	60
scalar Scenario2.node[177].veinsmobility 	minSpeed 	2.2529883940338
scalar Scenario2.node[177].veinsmobility 	maxSpeed 	18.999875641265
scalar Scenario2.node[177].veinsmobility 	totalDistance 	590.43950862395
scalar Scenario2.node[177].veinsmobility 	totalCO2Emission 	156.81212229586
