version 2
run WithoutChSw-slotted-1-20180210-01:32:11-23280
attr configname WithoutChSw-slotted
attr datetime 20180210-01:32:11
attr experiment WithoutChSw-slotted
attr inifile omnetpp.ini
attr iterationvars $0=0.5s
attr iterationvarsf 0.5s-
attr measurement $0=0.5s
attr network Scenario2
attr processid 23280
attr repetition 0
attr replication #0
attr resultdir results
attr runnumber 1
attr seedset 1
param **.coreDebug false
param **.debug false
param *.**.nic.mac1609_4.bitrate 6Mbps
param *.**.nic.mac1609_4.txPower 20mW
param *.**.nic.mac1609_4.useServiceChannel false
param *.**.nic.phy80211p.analogueModels "xmldoc(\"config.xml\")"
param *.**.nic.phy80211p.antenna "xmldoc(\"antenna.xml\", \"/root/Antenna[@id='monopole']\")"
param *.**.nic.phy80211p.collectCollisionStatistics true
param *.**.nic.phy80211p.decider "xmldoc(\"config.xml\")"
param *.**.nic.phy80211p.sensitivity -89dBm
param *.**.nic.phy80211p.thermalNoise -110dBm
param *.**.nic.phy80211p.usePropagationDelay true
param *.**.nic.phy80211p.useThermalNoise true
param *.annotations.draw true
param *.connectionManager.drawMaxIntfDist false
param *.connectionManager.maxInterfDist 2600m
param *.connectionManager.sendDirect true
param *.manager.autoShutdown true
param *.manager.host "\"localhost\""
param *.manager.launchConfig "xmldoc(\"mycross.launchd.xml\")"
param *.manager.port 9999
param *.manager.updateInterval 1s
param *.node[*].appl.Slotted1Enabled true
param *.node[*].appl.Slotted_Ns 5
param *.node[*].appl.Slotted_R 500
param *.node[*].appl.Slotted_tau 0.005
param *.node[*].appl.beaconInterval 1s
param *.node[*].appl.dataOnSch false
param *.node[*].appl.headerLength "80 bit"
param *.node[*].appl.sendBeacons true
param *.node[*].applType "\"myWaveAppLayer\""
param *.node[*].veinsmobility.x 0
param *.node[*].veinsmobility.y 0
param *.node[*].veinsmobility.z 1.895
param *.node[*].veinsmobilityType.debug true
param *.node[20].appl.Accident_start 30
param *.node[40].veinsmobility.accidentCount 1
param *.node[40].veinsmobility.accidentDuration 40s
param *.node[40].veinsmobility.accidentStart 30s
param *.obstacles.debug false
param *.playgroundSizeX 2500m
param *.playgroundSizeY 2500m
param *.playgroundSizeZ 50m
param *.rsu[*].appl.beaconInterval 0.1s
param *.rsu[*].appl.beaconUserPriority 7
param *.rsu[*].appl.dataOnSch false
param *.rsu[*].appl.dataUserPriority 5
param *.rsu[*].appl.headerLength "80 bit"
param *.rsu[*].appl.sendBeacons false
param *.rsu[*].applType "\"TraCIDemoRSU11p\""
param *.rsu[0].mobility.x 500
param *.rsu[0].mobility.y 500
param *.rsu[0].mobility.z 3

vector 1843  Scenario2.node[0].veinsmobility  posx  ETV
vector 1844  Scenario2.node[0].veinsmobility  posy  ETV
vector 1850  Scenario2.node[1].veinsmobility  posx  ETV
vector 1851  Scenario2.node[1].veinsmobility  posy  ETV
vector 1857  Scenario2.node[2].veinsmobility  posx  ETV
vector 1858  Scenario2.node[2].veinsmobility  posy  ETV
vector 1864  Scenario2.node[3].veinsmobility  posx  ETV
vector 1865  Scenario2.node[3].veinsmobility  posy  ETV
vector 1871  Scenario2.node[4].veinsmobility  posx  ETV
vector 1872  Scenario2.node[4].veinsmobility  posy  ETV
vector 1878  Scenario2.node[5].veinsmobility  posx  ETV
vector 1879  Scenario2.node[5].veinsmobility  posy  ETV
vector 1885  Scenario2.node[6].veinsmobility  posx  ETV
vector 1886  Scenario2.node[6].veinsmobility  posy  ETV
vector 1892  Scenario2.node[7].veinsmobility  posx  ETV
vector 1893  Scenario2.node[7].veinsmobility  posy  ETV
vector 1899  Scenario2.node[8].veinsmobility  posx  ETV
vector 1900  Scenario2.node[8].veinsmobility  posy  ETV
vector 1906  Scenario2.node[9].veinsmobility  posx  ETV
vector 1907  Scenario2.node[9].veinsmobility  posy  ETV
vector 1913  Scenario2.node[10].veinsmobility  posx  ETV
vector 1914  Scenario2.node[10].veinsmobility  posy  ETV
vector 1920  Scenario2.node[11].veinsmobility  posx  ETV
vector 1921  Scenario2.node[11].veinsmobility  posy  ETV
vector 1927  Scenario2.node[12].veinsmobility  posx  ETV
vector 1928  Scenario2.node[12].veinsmobility  posy  ETV
vector 1934  Scenario2.node[13].veinsmobility  posx  ETV
vector 1935  Scenario2.node[13].veinsmobility  posy  ETV
vector 1941  Scenario2.node[14].veinsmobility  posx  ETV
vector 1942  Scenario2.node[14].veinsmobility  posy  ETV
vector 1948  Scenario2.node[15].veinsmobility  posx  ETV
vector 1949  Scenario2.node[15].veinsmobility  posy  ETV
vector 1955  Scenario2.node[16].veinsmobility  posx  ETV
vector 1956  Scenario2.node[16].veinsmobility  posy  ETV
vector 1962  Scenario2.node[17].veinsmobility  posx  ETV
vector 1963  Scenario2.node[17].veinsmobility  posy  ETV
vector 1969  Scenario2.node[18].veinsmobility  posx  ETV
vector 1970  Scenario2.node[18].veinsmobility  posy  ETV
vector 1976  Scenario2.node[19].veinsmobility  posx  ETV
vector 1977  Scenario2.node[19].veinsmobility  posy  ETV
vector 1983  Scenario2.node[20].veinsmobility  posx  ETV
vector 1984  Scenario2.node[20].veinsmobility  posy  ETV
vector 1990  Scenario2.node[21].veinsmobility  posx  ETV
vector 1991  Scenario2.node[21].veinsmobility  posy  ETV
vector 1997  Scenario2.node[22].veinsmobility  posx  ETV
vector 1998  Scenario2.node[22].veinsmobility  posy  ETV
vector 2004  Scenario2.node[23].veinsmobility  posx  ETV
vector 2005  Scenario2.node[23].veinsmobility  posy  ETV
vector 2011  Scenario2.node[24].veinsmobility  posx  ETV
vector 2012  Scenario2.node[24].veinsmobility  posy  ETV
vector 2018  Scenario2.node[25].veinsmobility  posx  ETV
vector 2019  Scenario2.node[25].veinsmobility  posy  ETV
vector 2025  Scenario2.node[26].veinsmobility  posx  ETV
vector 2026  Scenario2.node[26].veinsmobility  posy  ETV
vector 2032  Scenario2.node[27].veinsmobility  posx  ETV
vector 2033  Scenario2.node[27].veinsmobility  posy  ETV
vector 2039  Scenario2.node[28].veinsmobility  posx  ETV
vector 2040  Scenario2.node[28].veinsmobility  posy  ETV
vector 2046  Scenario2.node[29].veinsmobility  posx  ETV
vector 2047  Scenario2.node[29].veinsmobility  posy  ETV
vector 2053  Scenario2.node[30].veinsmobility  posx  ETV
vector 2054  Scenario2.node[30].veinsmobility  posy  ETV
vector 2060  Scenario2.node[31].veinsmobility  posx  ETV
vector 2061  Scenario2.node[31].veinsmobility  posy  ETV
vector 2067  Scenario2.node[32].veinsmobility  posx  ETV
vector 2068  Scenario2.node[32].veinsmobility  posy  ETV
vector 2074  Scenario2.node[33].veinsmobility  posx  ETV
vector 2075  Scenario2.node[33].veinsmobility  posy  ETV
vector 2081  Scenario2.node[34].veinsmobility  posx  ETV
vector 2082  Scenario2.node[34].veinsmobility  posy  ETV
vector 2088  Scenario2.node[35].veinsmobility  posx  ETV
vector 2089  Scenario2.node[35].veinsmobility  posy  ETV
vector 2095  Scenario2.node[36].veinsmobility  posx  ETV
vector 2096  Scenario2.node[36].veinsmobility  posy  ETV
vector 2102  Scenario2.node[37].veinsmobility  posx  ETV
vector 2103  Scenario2.node[37].veinsmobility  posy  ETV
vector 2109  Scenario2.node[38].veinsmobility  posx  ETV
vector 2110  Scenario2.node[38].veinsmobility  posy  ETV
vector 2116  Scenario2.node[39].veinsmobility  posx  ETV
vector 2117  Scenario2.node[39].veinsmobility  posy  ETV
vector 2123  Scenario2.node[40].veinsmobility  posx  ETV
vector 2124  Scenario2.node[40].veinsmobility  posy  ETV
vector 2130  Scenario2.node[41].veinsmobility  posx  ETV
vector 2131  Scenario2.node[41].veinsmobility  posy  ETV
vector 2137  Scenario2.node[42].veinsmobility  posx  ETV
vector 2138  Scenario2.node[42].veinsmobility  posy  ETV
vector 2144  Scenario2.node[43].veinsmobility  posx  ETV
vector 2145  Scenario2.node[43].veinsmobility  posy  ETV
vector 2151  Scenario2.node[44].veinsmobility  posx  ETV
vector 2152  Scenario2.node[44].veinsmobility  posy  ETV
vector 2158  Scenario2.node[45].veinsmobility  posx  ETV
vector 2159  Scenario2.node[45].veinsmobility  posy  ETV
vector 2165  Scenario2.node[46].veinsmobility  posx  ETV
vector 2166  Scenario2.node[46].veinsmobility  posy  ETV
vector 2172  Scenario2.node[47].veinsmobility  posx  ETV
vector 2173  Scenario2.node[47].veinsmobility  posy  ETV
vector 2179  Scenario2.node[48].veinsmobility  posx  ETV
vector 2180  Scenario2.node[48].veinsmobility  posy  ETV
vector 2186  Scenario2.node[49].veinsmobility  posx  ETV
vector 2187  Scenario2.node[49].veinsmobility  posy  ETV
vector 2193  Scenario2.node[50].veinsmobility  posx  ETV
vector 2194  Scenario2.node[50].veinsmobility  posy  ETV
vector 2200  Scenario2.node[51].veinsmobility  posx  ETV
vector 2201  Scenario2.node[51].veinsmobility  posy  ETV
vector 2207  Scenario2.node[52].veinsmobility  posx  ETV
vector 2208  Scenario2.node[52].veinsmobility  posy  ETV
vector 2214  Scenario2.node[53].veinsmobility  posx  ETV
vector 2215  Scenario2.node[53].veinsmobility  posy  ETV
vector 2221  Scenario2.node[54].veinsmobility  posx  ETV
vector 2222  Scenario2.node[54].veinsmobility  posy  ETV
vector 2228  Scenario2.node[55].veinsmobility  posx  ETV
vector 2229  Scenario2.node[55].veinsmobility  posy  ETV
vector 2235  Scenario2.node[56].veinsmobility  posx  ETV
vector 2236  Scenario2.node[56].veinsmobility  posy  ETV
vector 2242  Scenario2.node[57].veinsmobility  posx  ETV
vector 2243  Scenario2.node[57].veinsmobility  posy  ETV
vector 2249  Scenario2.node[58].veinsmobility  posx  ETV
vector 2250  Scenario2.node[58].veinsmobility  posy  ETV
vector 2256  Scenario2.node[59].veinsmobility  posx  ETV
vector 2257  Scenario2.node[59].veinsmobility  posy  ETV
vector 2263  Scenario2.node[60].veinsmobility  posx  ETV
vector 2264  Scenario2.node[60].veinsmobility  posy  ETV
vector 2270  Scenario2.node[61].veinsmobility  posx  ETV
vector 2271  Scenario2.node[61].veinsmobility  posy  ETV
vector 2277  Scenario2.node[62].veinsmobility  posx  ETV
vector 2278  Scenario2.node[62].veinsmobility  posy  ETV
vector 2284  Scenario2.node[63].veinsmobility  posx  ETV
vector 2285  Scenario2.node[63].veinsmobility  posy  ETV
vector 2291  Scenario2.node[64].veinsmobility  posx  ETV
vector 2292  Scenario2.node[64].veinsmobility  posy  ETV
vector 2298  Scenario2.node[65].veinsmobility  posx  ETV
vector 2299  Scenario2.node[65].veinsmobility  posy  ETV
vector 2305  Scenario2.node[66].veinsmobility  posx  ETV
vector 2306  Scenario2.node[66].veinsmobility  posy  ETV
vector 2312  Scenario2.node[67].veinsmobility  posx  ETV
vector 2313  Scenario2.node[67].veinsmobility  posy  ETV
vector 2319  Scenario2.node[68].veinsmobility  posx  ETV
vector 2320  Scenario2.node[68].veinsmobility  posy  ETV
vector 2326  Scenario2.node[69].veinsmobility  posx  ETV
vector 2327  Scenario2.node[69].veinsmobility  posy  ETV
vector 2333  Scenario2.node[70].veinsmobility  posx  ETV
vector 2334  Scenario2.node[70].veinsmobility  posy  ETV
vector 2340  Scenario2.node[71].veinsmobility  posx  ETV
vector 2341  Scenario2.node[71].veinsmobility  posy  ETV
vector 1845  Scenario2.node[0].veinsmobility  speed  ETV
vector 1852  Scenario2.node[1].veinsmobility  speed  ETV
vector 1859  Scenario2.node[2].veinsmobility  speed  ETV
vector 1866  Scenario2.node[3].veinsmobility  speed  ETV
vector 1873  Scenario2.node[4].veinsmobility  speed  ETV
vector 1880  Scenario2.node[5].veinsmobility  speed  ETV
vector 1887  Scenario2.node[6].veinsmobility  speed  ETV
vector 1894  Scenario2.node[7].veinsmobility  speed  ETV
vector 1901  Scenario2.node[8].veinsmobility  speed  ETV
vector 1908  Scenario2.node[9].veinsmobility  speed  ETV
vector 1915  Scenario2.node[10].veinsmobility  speed  ETV
vector 1922  Scenario2.node[11].veinsmobility  speed  ETV
vector 1929  Scenario2.node[12].veinsmobility  speed  ETV
vector 1936  Scenario2.node[13].veinsmobility  speed  ETV
vector 1943  Scenario2.node[14].veinsmobility  speed  ETV
vector 1950  Scenario2.node[15].veinsmobility  speed  ETV
vector 1957  Scenario2.node[16].veinsmobility  speed  ETV
vector 1964  Scenario2.node[17].veinsmobility  speed  ETV
vector 1971  Scenario2.node[18].veinsmobility  speed  ETV
vector 1978  Scenario2.node[19].veinsmobility  speed  ETV
vector 1985  Scenario2.node[20].veinsmobility  speed  ETV
vector 1992  Scenario2.node[21].veinsmobility  speed  ETV
vector 1999  Scenario2.node[22].veinsmobility  speed  ETV
vector 2006  Scenario2.node[23].veinsmobility  speed  ETV
vector 2013  Scenario2.node[24].veinsmobility  speed  ETV
vector 2020  Scenario2.node[25].veinsmobility  speed  ETV
vector 2027  Scenario2.node[26].veinsmobility  speed  ETV
vector 2034  Scenario2.node[27].veinsmobility  speed  ETV
vector 2041  Scenario2.node[28].veinsmobility  speed  ETV
vector 2048  Scenario2.node[29].veinsmobility  speed  ETV
vector 2055  Scenario2.node[30].veinsmobility  speed  ETV
vector 2062  Scenario2.node[31].veinsmobility  speed  ETV
vector 2069  Scenario2.node[32].veinsmobility  speed  ETV
vector 2076  Scenario2.node[33].veinsmobility  speed  ETV
vector 2083  Scenario2.node[34].veinsmobility  speed  ETV
vector 2090  Scenario2.node[35].veinsmobility  speed  ETV
vector 2097  Scenario2.node[36].veinsmobility  speed  ETV
vector 2104  Scenario2.node[37].veinsmobility  speed  ETV
vector 2111  Scenario2.node[38].veinsmobility  speed  ETV
vector 2118  Scenario2.node[39].veinsmobility  speed  ETV
vector 2125  Scenario2.node[40].veinsmobility  speed  ETV
vector 2132  Scenario2.node[41].veinsmobility  speed  ETV
vector 2139  Scenario2.node[42].veinsmobility  speed  ETV
vector 2146  Scenario2.node[43].veinsmobility  speed  ETV
vector 2153  Scenario2.node[44].veinsmobility  speed  ETV
vector 2160  Scenario2.node[45].veinsmobility  speed  ETV
vector 2167  Scenario2.node[46].veinsmobility  speed  ETV
vector 2347  Scenario2.node[72].veinsmobility  posx  ETV
vector 2348  Scenario2.node[72].veinsmobility  posy  ETV
vector 2354  Scenario2.node[73].veinsmobility  posx  ETV
vector 2355  Scenario2.node[73].veinsmobility  posy  ETV
vector 2361  Scenario2.node[74].veinsmobility  posx  ETV
vector 2362  Scenario2.node[74].veinsmobility  posy  ETV
vector 2368  Scenario2.node[75].veinsmobility  posx  ETV
vector 2369  Scenario2.node[75].veinsmobility  posy  ETV
vector 2375  Scenario2.node[76].veinsmobility  posx  ETV
vector 2376  Scenario2.node[76].veinsmobility  posy  ETV
vector 2382  Scenario2.node[77].veinsmobility  posx  ETV
vector 2383  Scenario2.node[77].veinsmobility  posy  ETV
vector 2389  Scenario2.node[78].veinsmobility  posx  ETV
vector 2390  Scenario2.node[78].veinsmobility  posy  ETV
vector 2396  Scenario2.node[79].veinsmobility  posx  ETV
vector 2397  Scenario2.node[79].veinsmobility  posy  ETV
vector 1846  Scenario2.node[0].veinsmobility  acceleration  ETV
vector 1847  Scenario2.node[0].veinsmobility  co2emission  ETV
vector 1853  Scenario2.node[1].veinsmobility  acceleration  ETV
vector 1854  Scenario2.node[1].veinsmobility  co2emission  ETV
vector 1860  Scenario2.node[2].veinsmobility  acceleration  ETV
vector 1861  Scenario2.node[2].veinsmobility  co2emission  ETV
vector 1867  Scenario2.node[3].veinsmobility  acceleration  ETV
vector 1868  Scenario2.node[3].veinsmobility  co2emission  ETV
vector 1874  Scenario2.node[4].veinsmobility  acceleration  ETV
vector 1875  Scenario2.node[4].veinsmobility  co2emission  ETV
vector 1881  Scenario2.node[5].veinsmobility  acceleration  ETV
vector 1882  Scenario2.node[5].veinsmobility  co2emission  ETV
vector 1888  Scenario2.node[6].veinsmobility  acceleration  ETV
vector 1889  Scenario2.node[6].veinsmobility  co2emission  ETV
vector 1895  Scenario2.node[7].veinsmobility  acceleration  ETV
vector 1896  Scenario2.node[7].veinsmobility  co2emission  ETV
vector 1902  Scenario2.node[8].veinsmobility  acceleration  ETV
vector 1903  Scenario2.node[8].veinsmobility  co2emission  ETV
vector 1909  Scenario2.node[9].veinsmobility  acceleration  ETV
vector 1910  Scenario2.node[9].veinsmobility  co2emission  ETV
vector 1916  Scenario2.node[10].veinsmobility  acceleration  ETV
vector 1917  Scenario2.node[10].veinsmobility  co2emission  ETV
vector 1923  Scenario2.node[11].veinsmobility  acceleration  ETV
vector 1924  Scenario2.node[11].veinsmobility  co2emission  ETV
vector 1930  Scenario2.node[12].veinsmobility  acceleration  ETV
vector 1931  Scenario2.node[12].veinsmobility  co2emission  ETV
vector 1937  Scenario2.node[13].veinsmobility  acceleration  ETV
vector 1938  Scenario2.node[13].veinsmobility  co2emission  ETV
vector 1944  Scenario2.node[14].veinsmobility  acceleration  ETV
vector 1945  Scenario2.node[14].veinsmobility  co2emission  ETV
vector 1951  Scenario2.node[15].veinsmobility  acceleration  ETV
vector 1952  Scenario2.node[15].veinsmobility  co2emission  ETV
vector 1958  Scenario2.node[16].veinsmobility  acceleration  ETV
vector 1959  Scenario2.node[16].veinsmobility  co2emission  ETV
vector 1965  Scenario2.node[17].veinsmobility  acceleration  ETV
vector 1966  Scenario2.node[17].veinsmobility  co2emission  ETV
vector 1972  Scenario2.node[18].veinsmobility  acceleration  ETV
vector 1973  Scenario2.node[18].veinsmobility  co2emission  ETV
vector 1979  Scenario2.node[19].veinsmobility  acceleration  ETV
vector 1980  Scenario2.node[19].veinsmobility  co2emission  ETV
vector 1986  Scenario2.node[20].veinsmobility  acceleration  ETV
vector 1987  Scenario2.node[20].veinsmobility  co2emission  ETV
vector 1993  Scenario2.node[21].veinsmobility  acceleration  ETV
vector 1994  Scenario2.node[21].veinsmobility  co2emission  ETV
vector 2000  Scenario2.node[22].veinsmobility  acceleration  ETV
vector 2001  Scenario2.node[22].veinsmobility  co2emission  ETV
vector 2007  Scenario2.node[23].veinsmobility  acceleration  ETV
vector 2008  Scenario2.node[23].veinsmobility  co2emission  ETV
vector 2014  Scenario2.node[24].veinsmobility  acceleration  ETV
vector 2015  Scenario2.node[24].veinsmobility  co2emission  ETV
vector 2021  Scenario2.node[25].veinsmobility  acceleration  ETV
vector 2022  Scenario2.node[25].veinsmobility  co2emission  ETV
vector 2028  Scenario2.node[26].veinsmobility  acceleration  ETV
vector 2029  Scenario2.node[26].veinsmobility  co2emission  ETV
vector 2035  Scenario2.node[27].veinsmobility  acceleration  ETV
vector 2036  Scenario2.node[27].veinsmobility  co2emission  ETV
vector 2042  Scenario2.node[28].veinsmobility  acceleration  ETV
vector 2043  Scenario2.node[28].veinsmobility  co2emission  ETV
vector 2049  Scenario2.node[29].veinsmobility  acceleration  ETV
vector 2050  Scenario2.node[29].veinsmobility  co2emission  ETV
vector 2056  Scenario2.node[30].veinsmobility  acceleration  ETV
vector 2057  Scenario2.node[30].veinsmobility  co2emission  ETV
vector 2063  Scenario2.node[31].veinsmobility  acceleration  ETV
vector 2064  Scenario2.node[31].veinsmobility  co2emission  ETV
vector 2070  Scenario2.node[32].veinsmobility  acceleration  ETV
vector 2071  Scenario2.node[32].veinsmobility  co2emission  ETV
vector 2077  Scenario2.node[33].veinsmobility  acceleration  ETV
vector 2078  Scenario2.node[33].veinsmobility  co2emission  ETV
vector 2084  Scenario2.node[34].veinsmobility  acceleration  ETV
vector 2085  Scenario2.node[34].veinsmobility  co2emission  ETV
vector 2091  Scenario2.node[35].veinsmobility  acceleration  ETV
vector 2092  Scenario2.node[35].veinsmobility  co2emission  ETV
vector 2098  Scenario2.node[36].veinsmobility  acceleration  ETV
vector 2099  Scenario2.node[36].veinsmobility  co2emission  ETV
vector 2105  Scenario2.node[37].veinsmobility  acceleration  ETV
vector 2106  Scenario2.node[37].veinsmobility  co2emission  ETV
vector 2112  Scenario2.node[38].veinsmobility  acceleration  ETV
vector 2113  Scenario2.node[38].veinsmobility  co2emission  ETV
vector 2119  Scenario2.node[39].veinsmobility  acceleration  ETV
vector 2120  Scenario2.node[39].veinsmobility  co2emission  ETV
vector 2126  Scenario2.node[40].veinsmobility  acceleration  ETV
vector 2127  Scenario2.node[40].veinsmobility  co2emission  ETV
vector 2133  Scenario2.node[41].veinsmobility  acceleration  ETV
vector 2134  Scenario2.node[41].veinsmobility  co2emission  ETV
vector 2140  Scenario2.node[42].veinsmobility  acceleration  ETV
vector 2141  Scenario2.node[42].veinsmobility  co2emission  ETV
vector 2147  Scenario2.node[43].veinsmobility  acceleration  ETV
vector 2148  Scenario2.node[43].veinsmobility  co2emission  ETV
vector 2154  Scenario2.node[44].veinsmobility  acceleration  ETV
vector 2155  Scenario2.node[44].veinsmobility  co2emission  ETV
vector 2161  Scenario2.node[45].veinsmobility  acceleration  ETV
vector 2162  Scenario2.node[45].veinsmobility  co2emission  ETV
vector 2168  Scenario2.node[46].veinsmobility  acceleration  ETV
vector 2169  Scenario2.node[46].veinsmobility  co2emission  ETV
vector 2174  Scenario2.node[47].veinsmobility  speed  ETV
vector 2181  Scenario2.node[48].veinsmobility  speed  ETV
vector 2188  Scenario2.node[49].veinsmobility  speed  ETV
vector 2195  Scenario2.node[50].veinsmobility  speed  ETV
vector 2202  Scenario2.node[51].veinsmobility  speed  ETV
vector 2209  Scenario2.node[52].veinsmobility  speed  ETV
vector 2216  Scenario2.node[53].veinsmobility  speed  ETV
vector 2223  Scenario2.node[54].veinsmobility  speed  ETV
vector 2230  Scenario2.node[55].veinsmobility  speed  ETV
vector 2237  Scenario2.node[56].veinsmobility  speed  ETV
vector 2244  Scenario2.node[57].veinsmobility  speed  ETV
vector 2251  Scenario2.node[58].veinsmobility  speed  ETV
vector 2258  Scenario2.node[59].veinsmobility  speed  ETV
vector 2265  Scenario2.node[60].veinsmobility  speed  ETV
vector 2272  Scenario2.node[61].veinsmobility  speed  ETV
vector 2279  Scenario2.node[62].veinsmobility  speed  ETV
vector 2286  Scenario2.node[63].veinsmobility  speed  ETV
vector 2293  Scenario2.node[64].veinsmobility  speed  ETV
vector 2300  Scenario2.node[65].veinsmobility  speed  ETV
vector 2307  Scenario2.node[66].veinsmobility  speed  ETV
vector 2314  Scenario2.node[67].veinsmobility  speed  ETV
vector 2321  Scenario2.node[68].veinsmobility  speed  ETV
vector 2328  Scenario2.node[69].veinsmobility  speed  ETV
vector 2335  Scenario2.node[70].veinsmobility  speed  ETV
vector 2342  Scenario2.node[71].veinsmobility  speed  ETV
vector 2403  Scenario2.node[80].veinsmobility  posx  ETV
vector 2404  Scenario2.node[80].veinsmobility  posy  ETV
vector 2410  Scenario2.node[81].veinsmobility  posx  ETV
vector 2411  Scenario2.node[81].veinsmobility  posy  ETV
vector 2417  Scenario2.node[82].veinsmobility  posx  ETV
vector 2418  Scenario2.node[82].veinsmobility  posy  ETV
vector 2424  Scenario2.node[83].veinsmobility  posx  ETV
vector 2425  Scenario2.node[83].veinsmobility  posy  ETV
vector 2431  Scenario2.node[84].veinsmobility  posx  ETV
vector 2432  Scenario2.node[84].veinsmobility  posy  ETV
vector 2438  Scenario2.node[85].veinsmobility  posx  ETV
vector 2439  Scenario2.node[85].veinsmobility  posy  ETV
vector 2175  Scenario2.node[47].veinsmobility  acceleration  ETV
vector 2176  Scenario2.node[47].veinsmobility  co2emission  ETV
vector 2182  Scenario2.node[48].veinsmobility  acceleration  ETV
vector 2183  Scenario2.node[48].veinsmobility  co2emission  ETV
vector 2189  Scenario2.node[49].veinsmobility  acceleration  ETV
vector 2190  Scenario2.node[49].veinsmobility  co2emission  ETV
vector 2196  Scenario2.node[50].veinsmobility  acceleration  ETV
vector 2197  Scenario2.node[50].veinsmobility  co2emission  ETV
vector 2203  Scenario2.node[51].veinsmobility  acceleration  ETV
vector 2204  Scenario2.node[51].veinsmobility  co2emission  ETV
vector 2210  Scenario2.node[52].veinsmobility  acceleration  ETV
vector 2211  Scenario2.node[52].veinsmobility  co2emission  ETV
vector 2217  Scenario2.node[53].veinsmobility  acceleration  ETV
vector 2218  Scenario2.node[53].veinsmobility  co2emission  ETV
vector 2224  Scenario2.node[54].veinsmobility  acceleration  ETV
vector 2225  Scenario2.node[54].veinsmobility  co2emission  ETV
vector 2231  Scenario2.node[55].veinsmobility  acceleration  ETV
vector 2232  Scenario2.node[55].veinsmobility  co2emission  ETV
vector 2238  Scenario2.node[56].veinsmobility  acceleration  ETV
vector 2239  Scenario2.node[56].veinsmobility  co2emission  ETV
vector 2245  Scenario2.node[57].veinsmobility  acceleration  ETV
vector 2246  Scenario2.node[57].veinsmobility  co2emission  ETV
vector 2252  Scenario2.node[58].veinsmobility  acceleration  ETV
vector 2253  Scenario2.node[58].veinsmobility  co2emission  ETV
vector 2259  Scenario2.node[59].veinsmobility  acceleration  ETV
vector 2260  Scenario2.node[59].veinsmobility  co2emission  ETV
vector 2266  Scenario2.node[60].veinsmobility  acceleration  ETV
vector 2267  Scenario2.node[60].veinsmobility  co2emission  ETV
vector 2273  Scenario2.node[61].veinsmobility  acceleration  ETV
vector 2274  Scenario2.node[61].veinsmobility  co2emission  ETV
vector 2280  Scenario2.node[62].veinsmobility  acceleration  ETV
vector 2281  Scenario2.node[62].veinsmobility  co2emission  ETV
vector 2287  Scenario2.node[63].veinsmobility  acceleration  ETV
vector 2288  Scenario2.node[63].veinsmobility  co2emission  ETV
vector 2294  Scenario2.node[64].veinsmobility  acceleration  ETV
vector 2295  Scenario2.node[64].veinsmobility  co2emission  ETV
vector 2301  Scenario2.node[65].veinsmobility  acceleration  ETV
vector 2302  Scenario2.node[65].veinsmobility  co2emission  ETV
vector 2308  Scenario2.node[66].veinsmobility  acceleration  ETV
vector 2309  Scenario2.node[66].veinsmobility  co2emission  ETV
vector 2315  Scenario2.node[67].veinsmobility  acceleration  ETV
vector 2316  Scenario2.node[67].veinsmobility  co2emission  ETV
vector 2322  Scenario2.node[68].veinsmobility  acceleration  ETV
vector 2323  Scenario2.node[68].veinsmobility  co2emission  ETV
vector 2329  Scenario2.node[69].veinsmobility  acceleration  ETV
vector 2330  Scenario2.node[69].veinsmobility  co2emission  ETV
vector 2336  Scenario2.node[70].veinsmobility  acceleration  ETV
vector 2337  Scenario2.node[70].veinsmobility  co2emission  ETV
vector 2343  Scenario2.node[71].veinsmobility  acceleration  ETV
vector 2344  Scenario2.node[71].veinsmobility  co2emission  ETV
vector 2349  Scenario2.node[72].veinsmobility  speed  ETV
vector 2356  Scenario2.node[73].veinsmobility  speed  ETV
vector 2363  Scenario2.node[74].veinsmobility  speed  ETV
vector 2370  Scenario2.node[75].veinsmobility  speed  ETV
vector 2377  Scenario2.node[76].veinsmobility  speed  ETV
vector 2384  Scenario2.node[77].veinsmobility  speed  ETV
vector 2391  Scenario2.node[78].veinsmobility  speed  ETV
vector 2398  Scenario2.node[79].veinsmobility  speed  ETV
vector 2445  Scenario2.node[86].veinsmobility  posx  ETV
vector 2446  Scenario2.node[86].veinsmobility  posy  ETV
vector 2452  Scenario2.node[87].veinsmobility  posx  ETV
vector 2453  Scenario2.node[87].veinsmobility  posy  ETV
vector 2459  Scenario2.node[88].veinsmobility  posx  ETV
vector 2460  Scenario2.node[88].veinsmobility  posy  ETV
vector 2466  Scenario2.node[89].veinsmobility  posx  ETV
vector 2467  Scenario2.node[89].veinsmobility  posy  ETV
vector 2473  Scenario2.node[90].veinsmobility  posx  ETV
vector 2474  Scenario2.node[90].veinsmobility  posy  ETV
vector 2350  Scenario2.node[72].veinsmobility  acceleration  ETV
vector 2351  Scenario2.node[72].veinsmobility  co2emission  ETV
vector 2357  Scenario2.node[73].veinsmobility  acceleration  ETV
vector 2358  Scenario2.node[73].veinsmobility  co2emission  ETV
vector 2364  Scenario2.node[74].veinsmobility  acceleration  ETV
vector 2365  Scenario2.node[74].veinsmobility  co2emission  ETV
vector 2371  Scenario2.node[75].veinsmobility  acceleration  ETV
vector 2372  Scenario2.node[75].veinsmobility  co2emission  ETV
vector 2378  Scenario2.node[76].veinsmobility  acceleration  ETV
vector 2379  Scenario2.node[76].veinsmobility  co2emission  ETV
vector 2385  Scenario2.node[77].veinsmobility  acceleration  ETV
vector 2386  Scenario2.node[77].veinsmobility  co2emission  ETV
vector 2392  Scenario2.node[78].veinsmobility  acceleration  ETV
vector 2393  Scenario2.node[78].veinsmobility  co2emission  ETV
vector 2399  Scenario2.node[79].veinsmobility  acceleration  ETV
vector 2400  Scenario2.node[79].veinsmobility  co2emission  ETV
vector 2405  Scenario2.node[80].veinsmobility  speed  ETV
vector 2412  Scenario2.node[81].veinsmobility  speed  ETV
vector 2419  Scenario2.node[82].veinsmobility  speed  ETV
vector 2426  Scenario2.node[83].veinsmobility  speed  ETV
vector 2433  Scenario2.node[84].veinsmobility  speed  ETV
vector 2440  Scenario2.node[85].veinsmobility  speed  ETV
vector 2480  Scenario2.node[91].veinsmobility  posx  ETV
vector 2481  Scenario2.node[91].veinsmobility  posy  ETV
vector 2487  Scenario2.node[92].veinsmobility  posx  ETV
vector 2488  Scenario2.node[92].veinsmobility  posy  ETV
vector 2494  Scenario2.node[93].veinsmobility  posx  ETV
vector 2495  Scenario2.node[93].veinsmobility  posy  ETV
vector 2501  Scenario2.node[94].veinsmobility  posx  ETV
vector 2502  Scenario2.node[94].veinsmobility  posy  ETV
vector 2508  Scenario2.node[95].veinsmobility  posx  ETV
vector 2509  Scenario2.node[95].veinsmobility  posy  ETV
vector 2515  Scenario2.node[96].veinsmobility  posx  ETV
vector 2516  Scenario2.node[96].veinsmobility  posy  ETV
vector 2522  Scenario2.node[97].veinsmobility  posx  ETV
vector 2523  Scenario2.node[97].veinsmobility  posy  ETV
vector 2406  Scenario2.node[80].veinsmobility  acceleration  ETV
vector 2407  Scenario2.node[80].veinsmobility  co2emission  ETV
vector 2413  Scenario2.node[81].veinsmobility  acceleration  ETV
vector 2414  Scenario2.node[81].veinsmobility  co2emission  ETV
vector 2420  Scenario2.node[82].veinsmobility  acceleration  ETV
vector 2421  Scenario2.node[82].veinsmobility  co2emission  ETV
vector 2427  Scenario2.node[83].veinsmobility  acceleration  ETV
vector 2428  Scenario2.node[83].veinsmobility  co2emission  ETV
vector 2434  Scenario2.node[84].veinsmobility  acceleration  ETV
vector 2435  Scenario2.node[84].veinsmobility  co2emission  ETV
vector 2441  Scenario2.node[85].veinsmobility  acceleration  ETV
vector 2442  Scenario2.node[85].veinsmobility  co2emission  ETV
vector 2447  Scenario2.node[86].veinsmobility  speed  ETV
vector 2454  Scenario2.node[87].veinsmobility  speed  ETV
vector 2461  Scenario2.node[88].veinsmobility  speed  ETV
vector 2468  Scenario2.node[89].veinsmobility  speed  ETV
vector 2475  Scenario2.node[90].veinsmobility  speed  ETV
vector 2529  Scenario2.node[98].veinsmobility  posx  ETV
vector 2530  Scenario2.node[98].veinsmobility  posy  ETV
vector 2536  Scenario2.node[99].veinsmobility  posx  ETV
vector 2537  Scenario2.node[99].veinsmobility  posy  ETV
vector 2543  Scenario2.node[100].veinsmobility  posx  ETV
vector 2544  Scenario2.node[100].veinsmobility  posy  ETV
vector 2550  Scenario2.node[101].veinsmobility  posx  ETV
vector 2551  Scenario2.node[101].veinsmobility  posy  ETV
vector 2557  Scenario2.node[102].veinsmobility  posx  ETV
vector 2558  Scenario2.node[102].veinsmobility  posy  ETV
vector 2564  Scenario2.node[103].veinsmobility  posx  ETV
vector 2565  Scenario2.node[103].veinsmobility  posy  ETV
vector 2571  Scenario2.node[104].veinsmobility  posx  ETV
vector 2572  Scenario2.node[104].veinsmobility  posy  ETV
vector 2578  Scenario2.node[105].veinsmobility  posx  ETV
vector 2579  Scenario2.node[105].veinsmobility  posy  ETV
vector 2585  Scenario2.node[106].veinsmobility  posx  ETV
vector 2586  Scenario2.node[106].veinsmobility  posy  ETV
vector 2448  Scenario2.node[86].veinsmobility  acceleration  ETV
vector 2449  Scenario2.node[86].veinsmobility  co2emission  ETV
vector 2455  Scenario2.node[87].veinsmobility  acceleration  ETV
vector 2456  Scenario2.node[87].veinsmobility  co2emission  ETV
vector 2462  Scenario2.node[88].veinsmobility  acceleration  ETV
vector 2463  Scenario2.node[88].veinsmobility  co2emission  ETV
vector 2469  Scenario2.node[89].veinsmobility  acceleration  ETV
vector 2470  Scenario2.node[89].veinsmobility  co2emission  ETV
vector 2476  Scenario2.node[90].veinsmobility  acceleration  ETV
vector 2477  Scenario2.node[90].veinsmobility  co2emission  ETV
vector 2482  Scenario2.node[91].veinsmobility  speed  ETV
vector 2489  Scenario2.node[92].veinsmobility  speed  ETV
vector 2496  Scenario2.node[93].veinsmobility  speed  ETV
vector 2503  Scenario2.node[94].veinsmobility  speed  ETV
vector 2510  Scenario2.node[95].veinsmobility  speed  ETV
vector 2517  Scenario2.node[96].veinsmobility  speed  ETV
vector 2524  Scenario2.node[97].veinsmobility  speed  ETV
vector 2592  Scenario2.node[107].veinsmobility  posx  ETV
vector 2593  Scenario2.node[107].veinsmobility  posy  ETV
vector 2599  Scenario2.node[108].veinsmobility  posx  ETV
vector 2600  Scenario2.node[108].veinsmobility  posy  ETV
vector 2606  Scenario2.node[109].veinsmobility  posx  ETV
vector 2607  Scenario2.node[109].veinsmobility  posy  ETV
vector 2613  Scenario2.node[110].veinsmobility  posx  ETV
vector 2614  Scenario2.node[110].veinsmobility  posy  ETV
vector 2620  Scenario2.node[111].veinsmobility  posx  ETV
vector 2621  Scenario2.node[111].veinsmobility  posy  ETV
vector 2627  Scenario2.node[112].veinsmobility  posx  ETV
vector 2628  Scenario2.node[112].veinsmobility  posy  ETV
vector 2634  Scenario2.node[113].veinsmobility  posx  ETV
vector 2635  Scenario2.node[113].veinsmobility  posy  ETV
vector 2641  Scenario2.node[114].veinsmobility  posx  ETV
vector 2642  Scenario2.node[114].veinsmobility  posy  ETV
vector 2483  Scenario2.node[91].veinsmobility  acceleration  ETV
vector 2484  Scenario2.node[91].veinsmobility  co2emission  ETV
vector 2490  Scenario2.node[92].veinsmobility  acceleration  ETV
vector 2491  Scenario2.node[92].veinsmobility  co2emission  ETV
vector 2497  Scenario2.node[93].veinsmobility  acceleration  ETV
vector 2498  Scenario2.node[93].veinsmobility  co2emission  ETV
vector 2504  Scenario2.node[94].veinsmobility  acceleration  ETV
vector 2505  Scenario2.node[94].veinsmobility  co2emission  ETV
vector 2511  Scenario2.node[95].veinsmobility  acceleration  ETV
vector 2512  Scenario2.node[95].veinsmobility  co2emission  ETV
vector 2518  Scenario2.node[96].veinsmobility  acceleration  ETV
vector 2519  Scenario2.node[96].veinsmobility  co2emission  ETV
vector 2525  Scenario2.node[97].veinsmobility  acceleration  ETV
vector 2526  Scenario2.node[97].veinsmobility  co2emission  ETV
vector 2531  Scenario2.node[98].veinsmobility  speed  ETV
vector 2538  Scenario2.node[99].veinsmobility  speed  ETV
vector 2545  Scenario2.node[100].veinsmobility  speed  ETV
vector 2552  Scenario2.node[101].veinsmobility  speed  ETV
vector 2559  Scenario2.node[102].veinsmobility  speed  ETV
vector 2566  Scenario2.node[103].veinsmobility  speed  ETV
vector 2573  Scenario2.node[104].veinsmobility  speed  ETV
vector 2580  Scenario2.node[105].veinsmobility  speed  ETV
vector 2587  Scenario2.node[106].veinsmobility  speed  ETV
vector 2648  Scenario2.node[115].veinsmobility  posx  ETV
vector 2649  Scenario2.node[115].veinsmobility  posy  ETV
vector 2655  Scenario2.node[116].veinsmobility  posx  ETV
vector 2656  Scenario2.node[116].veinsmobility  posy  ETV
vector 2662  Scenario2.node[117].veinsmobility  posx  ETV
vector 2663  Scenario2.node[117].veinsmobility  posy  ETV
vector 2532  Scenario2.node[98].veinsmobility  acceleration  ETV
vector 2533  Scenario2.node[98].veinsmobility  co2emission  ETV
vector 2539  Scenario2.node[99].veinsmobility  acceleration  ETV
vector 2540  Scenario2.node[99].veinsmobility  co2emission  ETV
vector 2546  Scenario2.node[100].veinsmobility  acceleration  ETV
vector 2547  Scenario2.node[100].veinsmobility  co2emission  ETV
vector 2553  Scenario2.node[101].veinsmobility  acceleration  ETV
vector 2554  Scenario2.node[101].veinsmobility  co2emission  ETV
vector 2560  Scenario2.node[102].veinsmobility  acceleration  ETV
vector 2561  Scenario2.node[102].veinsmobility  co2emission  ETV
vector 2567  Scenario2.node[103].veinsmobility  acceleration  ETV
vector 2568  Scenario2.node[103].veinsmobility  co2emission  ETV
vector 2574  Scenario2.node[104].veinsmobility  acceleration  ETV
vector 2575  Scenario2.node[104].veinsmobility  co2emission  ETV
vector 2581  Scenario2.node[105].veinsmobility  acceleration  ETV
vector 2582  Scenario2.node[105].veinsmobility  co2emission  ETV
vector 2588  Scenario2.node[106].veinsmobility  acceleration  ETV
vector 2589  Scenario2.node[106].veinsmobility  co2emission  ETV
vector 2594  Scenario2.node[107].veinsmobility  speed  ETV
vector 2601  Scenario2.node[108].veinsmobility  speed  ETV
vector 2608  Scenario2.node[109].veinsmobility  speed  ETV
vector 2615  Scenario2.node[110].veinsmobility  speed  ETV
vector 2622  Scenario2.node[111].veinsmobility  speed  ETV
vector 2629  Scenario2.node[112].veinsmobility  speed  ETV
vector 2636  Scenario2.node[113].veinsmobility  speed  ETV
vector 2643  Scenario2.node[114].veinsmobility  speed  ETV
vector 2669  Scenario2.node[118].veinsmobility  posx  ETV
vector 2670  Scenario2.node[118].veinsmobility  posy  ETV
vector 2676  Scenario2.node[119].veinsmobility  posx  ETV
vector 2677  Scenario2.node[119].veinsmobility  posy  ETV
vector 2683  Scenario2.node[120].veinsmobility  posx  ETV
vector 2684  Scenario2.node[120].veinsmobility  posy  ETV
vector 2690  Scenario2.node[121].veinsmobility  posx  ETV
vector 2691  Scenario2.node[121].veinsmobility  posy  ETV
vector 2697  Scenario2.node[122].veinsmobility  posx  ETV
vector 2698  Scenario2.node[122].veinsmobility  posy  ETV
vector 2595  Scenario2.node[107].veinsmobility  acceleration  ETV
vector 2596  Scenario2.node[107].veinsmobility  co2emission  ETV
vector 2602  Scenario2.node[108].veinsmobility  acceleration  ETV
vector 2603  Scenario2.node[108].veinsmobility  co2emission  ETV
vector 2609  Scenario2.node[109].veinsmobility  acceleration  ETV
vector 2610  Scenario2.node[109].veinsmobility  co2emission  ETV
vector 2616  Scenario2.node[110].veinsmobility  acceleration  ETV
vector 2617  Scenario2.node[110].veinsmobility  co2emission  ETV
vector 2623  Scenario2.node[111].veinsmobility  acceleration  ETV
vector 2624  Scenario2.node[111].veinsmobility  co2emission  ETV
vector 2630  Scenario2.node[112].veinsmobility  acceleration  ETV
vector 2631  Scenario2.node[112].veinsmobility  co2emission  ETV
vector 2637  Scenario2.node[113].veinsmobility  acceleration  ETV
vector 2638  Scenario2.node[113].veinsmobility  co2emission  ETV
vector 2644  Scenario2.node[114].veinsmobility  acceleration  ETV
vector 2645  Scenario2.node[114].veinsmobility  co2emission  ETV
vector 2650  Scenario2.node[115].veinsmobility  speed  ETV
vector 2657  Scenario2.node[116].veinsmobility  speed  ETV
vector 2664  Scenario2.node[117].veinsmobility  speed  ETV
vector 2704  Scenario2.node[123].veinsmobility  posx  ETV
vector 2705  Scenario2.node[123].veinsmobility  posy  ETV
vector 2711  Scenario2.node[124].veinsmobility  posx  ETV
vector 2712  Scenario2.node[124].veinsmobility  posy  ETV
vector 2718  Scenario2.node[125].veinsmobility  posx  ETV
vector 2719  Scenario2.node[125].veinsmobility  posy  ETV
vector 2725  Scenario2.node[126].veinsmobility  posx  ETV
vector 2726  Scenario2.node[126].veinsmobility  posy  ETV
vector 2651  Scenario2.node[115].veinsmobility  acceleration  ETV
vector 2652  Scenario2.node[115].veinsmobility  co2emission  ETV
vector 2658  Scenario2.node[116].veinsmobility  acceleration  ETV
vector 2659  Scenario2.node[116].veinsmobility  co2emission  ETV
vector 2665  Scenario2.node[117].veinsmobility  acceleration  ETV
vector 2666  Scenario2.node[117].veinsmobility  co2emission  ETV
vector 2671  Scenario2.node[118].veinsmobility  speed  ETV
vector 2678  Scenario2.node[119].veinsmobility  speed  ETV
vector 2685  Scenario2.node[120].veinsmobility  speed  ETV
vector 2692  Scenario2.node[121].veinsmobility  speed  ETV
vector 2699  Scenario2.node[122].veinsmobility  speed  ETV
vector 2732  Scenario2.node[127].veinsmobility  posx  ETV
vector 2733  Scenario2.node[127].veinsmobility  posy  ETV
vector 2739  Scenario2.node[128].veinsmobility  posx  ETV
vector 2740  Scenario2.node[128].veinsmobility  posy  ETV
vector 2746  Scenario2.node[129].veinsmobility  posx  ETV
vector 2747  Scenario2.node[129].veinsmobility  posy  ETV
vector 2753  Scenario2.node[130].veinsmobility  posx  ETV
vector 2754  Scenario2.node[130].veinsmobility  posy  ETV
vector 2672  Scenario2.node[118].veinsmobility  acceleration  ETV
vector 2673  Scenario2.node[118].veinsmobility  co2emission  ETV
vector 2679  Scenario2.node[119].veinsmobility  acceleration  ETV
vector 2680  Scenario2.node[119].veinsmobility  co2emission  ETV
vector 2686  Scenario2.node[120].veinsmobility  acceleration  ETV
vector 2687  Scenario2.node[120].veinsmobility  co2emission  ETV
vector 2693  Scenario2.node[121].veinsmobility  acceleration  ETV
vector 2694  Scenario2.node[121].veinsmobility  co2emission  ETV
vector 2700  Scenario2.node[122].veinsmobility  acceleration  ETV
vector 2701  Scenario2.node[122].veinsmobility  co2emission  ETV
vector 2706  Scenario2.node[123].veinsmobility  speed  ETV
vector 2713  Scenario2.node[124].veinsmobility  speed  ETV
vector 2720  Scenario2.node[125].veinsmobility  speed  ETV
vector 2727  Scenario2.node[126].veinsmobility  speed  ETV
vector 2760  Scenario2.node[131].veinsmobility  posx  ETV
vector 2761  Scenario2.node[131].veinsmobility  posy  ETV
vector 2767  Scenario2.node[132].veinsmobility  posx  ETV
vector 2768  Scenario2.node[132].veinsmobility  posy  ETV
vector 2774  Scenario2.node[133].veinsmobility  posx  ETV
vector 2775  Scenario2.node[133].veinsmobility  posy  ETV
vector 2707  Scenario2.node[123].veinsmobility  acceleration  ETV
vector 2708  Scenario2.node[123].veinsmobility  co2emission  ETV
vector 2714  Scenario2.node[124].veinsmobility  acceleration  ETV
vector 2715  Scenario2.node[124].veinsmobility  co2emission  ETV
vector 2721  Scenario2.node[125].veinsmobility  acceleration  ETV
vector 2722  Scenario2.node[125].veinsmobility  co2emission  ETV
vector 2728  Scenario2.node[126].veinsmobility  acceleration  ETV
vector 2729  Scenario2.node[126].veinsmobility  co2emission  ETV
vector 2734  Scenario2.node[127].veinsmobility  speed  ETV
vector 2741  Scenario2.node[128].veinsmobility  speed  ETV
vector 2748  Scenario2.node[129].veinsmobility  speed  ETV
vector 2755  Scenario2.node[130].veinsmobility  speed  ETV
vector 2781  Scenario2.node[134].veinsmobility  posx  ETV
vector 2782  Scenario2.node[134].veinsmobility  posy  ETV
vector 2788  Scenario2.node[135].veinsmobility  posx  ETV
vector 2789  Scenario2.node[135].veinsmobility  posy  ETV
vector 2795  Scenario2.node[136].veinsmobility  posx  ETV
vector 2796  Scenario2.node[136].veinsmobility  posy  ETV
vector 2735  Scenario2.node[127].veinsmobility  acceleration  ETV
vector 2736  Scenario2.node[127].veinsmobility  co2emission  ETV
vector 2742  Scenario2.node[128].veinsmobility  acceleration  ETV
vector 2743  Scenario2.node[128].veinsmobility  co2emission  ETV
vector 2749  Scenario2.node[129].veinsmobility  acceleration  ETV
vector 2750  Scenario2.node[129].veinsmobility  co2emission  ETV
vector 2756  Scenario2.node[130].veinsmobility  acceleration  ETV
vector 2757  Scenario2.node[130].veinsmobility  co2emission  ETV
vector 2762  Scenario2.node[131].veinsmobility  speed  ETV
vector 2769  Scenario2.node[132].veinsmobility  speed  ETV
vector 2776  Scenario2.node[133].veinsmobility  speed  ETV
vector 2802  Scenario2.node[137].veinsmobility  posx  ETV
vector 2803  Scenario2.node[137].veinsmobility  posy  ETV
vector 2809  Scenario2.node[138].veinsmobility  posx  ETV
vector 2810  Scenario2.node[138].veinsmobility  posy  ETV
vector 2816  Scenario2.node[139].veinsmobility  posx  ETV
vector 2817  Scenario2.node[139].veinsmobility  posy  ETV
vector 2823  Scenario2.node[140].veinsmobility  posx  ETV
vector 2824  Scenario2.node[140].veinsmobility  posy  ETV
vector 2830  Scenario2.node[141].veinsmobility  posx  ETV
vector 2831  Scenario2.node[141].veinsmobility  posy  ETV
vector 2837  Scenario2.node[142].veinsmobility  posx  ETV
vector 2838  Scenario2.node[142].veinsmobility  posy  ETV
vector 2763  Scenario2.node[131].veinsmobility  acceleration  ETV
vector 2764  Scenario2.node[131].veinsmobility  co2emission  ETV
vector 2770  Scenario2.node[132].veinsmobility  acceleration  ETV
vector 2771  Scenario2.node[132].veinsmobility  co2emission  ETV
vector 2777  Scenario2.node[133].veinsmobility  acceleration  ETV
vector 2778  Scenario2.node[133].veinsmobility  co2emission  ETV
vector 2783  Scenario2.node[134].veinsmobility  speed  ETV
vector 2790  Scenario2.node[135].veinsmobility  speed  ETV
vector 2797  Scenario2.node[136].veinsmobility  speed  ETV
vector 2844  Scenario2.node[143].veinsmobility  posx  ETV
vector 2845  Scenario2.node[143].veinsmobility  posy  ETV
vector 2851  Scenario2.node[144].veinsmobility  posx  ETV
vector 2852  Scenario2.node[144].veinsmobility  posy  ETV
vector 2858  Scenario2.node[145].veinsmobility  posx  ETV
vector 2859  Scenario2.node[145].veinsmobility  posy  ETV
vector 2865  Scenario2.node[146].veinsmobility  posx  ETV
vector 2866  Scenario2.node[146].veinsmobility  posy  ETV
vector 2872  Scenario2.node[147].veinsmobility  posx  ETV
vector 2873  Scenario2.node[147].veinsmobility  posy  ETV
vector 2879  Scenario2.node[148].veinsmobility  posx  ETV
vector 2880  Scenario2.node[148].veinsmobility  posy  ETV
vector 2886  Scenario2.node[149].veinsmobility  posx  ETV
vector 2887  Scenario2.node[149].veinsmobility  posy  ETV
vector 2893  Scenario2.node[150].veinsmobility  posx  ETV
vector 2894  Scenario2.node[150].veinsmobility  posy  ETV
vector 2900  Scenario2.node[151].veinsmobility  posx  ETV
vector 2901  Scenario2.node[151].veinsmobility  posy  ETV
vector 2907  Scenario2.node[152].veinsmobility  posx  ETV
vector 2908  Scenario2.node[152].veinsmobility  posy  ETV
vector 2914  Scenario2.node[153].veinsmobility  posx  ETV
vector 2915  Scenario2.node[153].veinsmobility  posy  ETV
vector 2921  Scenario2.node[154].veinsmobility  posx  ETV
vector 2922  Scenario2.node[154].veinsmobility  posy  ETV
vector 2784  Scenario2.node[134].veinsmobility  acceleration  ETV
vector 2785  Scenario2.node[134].veinsmobility  co2emission  ETV
vector 2791  Scenario2.node[135].veinsmobility  acceleration  ETV
vector 2792  Scenario2.node[135].veinsmobility  co2emission  ETV
vector 2798  Scenario2.node[136].veinsmobility  acceleration  ETV
vector 2799  Scenario2.node[136].veinsmobility  co2emission  ETV
vector 2804  Scenario2.node[137].veinsmobility  speed  ETV
vector 2811  Scenario2.node[138].veinsmobility  speed  ETV
vector 2818  Scenario2.node[139].veinsmobility  speed  ETV
vector 2825  Scenario2.node[140].veinsmobility  speed  ETV
vector 2832  Scenario2.node[141].veinsmobility  speed  ETV
vector 2839  Scenario2.node[142].veinsmobility  speed  ETV
vector 2928  Scenario2.node[155].veinsmobility  posx  ETV
vector 2929  Scenario2.node[155].veinsmobility  posy  ETV
vector 2935  Scenario2.node[156].veinsmobility  posx  ETV
vector 2936  Scenario2.node[156].veinsmobility  posy  ETV
vector 2942  Scenario2.node[157].veinsmobility  posx  ETV
vector 2943  Scenario2.node[157].veinsmobility  posy  ETV
vector 2949  Scenario2.node[158].veinsmobility  posx  ETV
vector 2950  Scenario2.node[158].veinsmobility  posy  ETV
vector 2956  Scenario2.node[159].veinsmobility  posx  ETV
vector 2957  Scenario2.node[159].veinsmobility  posy  ETV
vector 2805  Scenario2.node[137].veinsmobility  acceleration  ETV
vector 2806  Scenario2.node[137].veinsmobility  co2emission  ETV
vector 2812  Scenario2.node[138].veinsmobility  acceleration  ETV
vector 2813  Scenario2.node[138].veinsmobility  co2emission  ETV
vector 2819  Scenario2.node[139].veinsmobility  acceleration  ETV
vector 2820  Scenario2.node[139].veinsmobility  co2emission  ETV
vector 2826  Scenario2.node[140].veinsmobility  acceleration  ETV
vector 2827  Scenario2.node[140].veinsmobility  co2emission  ETV
vector 2833  Scenario2.node[141].veinsmobility  acceleration  ETV
vector 2834  Scenario2.node[141].veinsmobility  co2emission  ETV
vector 2840  Scenario2.node[142].veinsmobility  acceleration  ETV
vector 2841  Scenario2.node[142].veinsmobility  co2emission  ETV
vector 2846  Scenario2.node[143].veinsmobility  speed  ETV
vector 2853  Scenario2.node[144].veinsmobility  speed  ETV
vector 2860  Scenario2.node[145].veinsmobility  speed  ETV
vector 2867  Scenario2.node[146].veinsmobility  speed  ETV
vector 2874  Scenario2.node[147].veinsmobility  speed  ETV
vector 2881  Scenario2.node[148].veinsmobility  speed  ETV
vector 2888  Scenario2.node[149].veinsmobility  speed  ETV
vector 2895  Scenario2.node[150].veinsmobility  speed  ETV
vector 2902  Scenario2.node[151].veinsmobility  speed  ETV
vector 2909  Scenario2.node[152].veinsmobility  speed  ETV
vector 2916  Scenario2.node[153].veinsmobility  speed  ETV
vector 2923  Scenario2.node[154].veinsmobility  speed  ETV
vector 2963  Scenario2.node[160].veinsmobility  posx  ETV
vector 2964  Scenario2.node[160].veinsmobility  posy  ETV
vector 2970  Scenario2.node[161].veinsmobility  posx  ETV
vector 2971  Scenario2.node[161].veinsmobility  posy  ETV
vector 2977  Scenario2.node[162].veinsmobility  posx  ETV
vector 2978  Scenario2.node[162].veinsmobility  posy  ETV
vector 2984  Scenario2.node[163].veinsmobility  posx  ETV
vector 2985  Scenario2.node[163].veinsmobility  posy  ETV
vector 2991  Scenario2.node[164].veinsmobility  posx  ETV
vector 2992  Scenario2.node[164].veinsmobility  posy  ETV
vector 2998  Scenario2.node[165].veinsmobility  posx  ETV
vector 2999  Scenario2.node[165].veinsmobility  posy  ETV
vector 2847  Scenario2.node[143].veinsmobility  acceleration  ETV
vector 2848  Scenario2.node[143].veinsmobility  co2emission  ETV
vector 2854  Scenario2.node[144].veinsmobility  acceleration  ETV
vector 2855  Scenario2.node[144].veinsmobility  co2emission  ETV
vector 2861  Scenario2.node[145].veinsmobility  acceleration  ETV
vector 2862  Scenario2.node[145].veinsmobility  co2emission  ETV
vector 2868  Scenario2.node[146].veinsmobility  acceleration  ETV
vector 2869  Scenario2.node[146].veinsmobility  co2emission  ETV
vector 2875  Scenario2.node[147].veinsmobility  acceleration  ETV
vector 2876  Scenario2.node[147].veinsmobility  co2emission  ETV
vector 2882  Scenario2.node[148].veinsmobility  acceleration  ETV
vector 2883  Scenario2.node[148].veinsmobility  co2emission  ETV
vector 2889  Scenario2.node[149].veinsmobility  acceleration  ETV
vector 2890  Scenario2.node[149].veinsmobility  co2emission  ETV
vector 2896  Scenario2.node[150].veinsmobility  acceleration  ETV
vector 2897  Scenario2.node[150].veinsmobility  co2emission  ETV
vector 2903  Scenario2.node[151].veinsmobility  acceleration  ETV
vector 2904  Scenario2.node[151].veinsmobility  co2emission  ETV
vector 2910  Scenario2.node[152].veinsmobility  acceleration  ETV
vector 2911  Scenario2.node[152].veinsmobility  co2emission  ETV
vector 2917  Scenario2.node[153].veinsmobility  acceleration  ETV
vector 2918  Scenario2.node[153].veinsmobility  co2emission  ETV
vector 2924  Scenario2.node[154].veinsmobility  acceleration  ETV
vector 2925  Scenario2.node[154].veinsmobility  co2emission  ETV
vector 2930  Scenario2.node[155].veinsmobility  speed  ETV
vector 2937  Scenario2.node[156].veinsmobility  speed  ETV
vector 2944  Scenario2.node[157].veinsmobility  speed  ETV
vector 2951  Scenario2.node[158].veinsmobility  speed  ETV
vector 2958  Scenario2.node[159].veinsmobility  speed  ETV
vector 3005  Scenario2.node[166].veinsmobility  posx  ETV
vector 3006  Scenario2.node[166].veinsmobility  posy  ETV
vector 3012  Scenario2.node[167].veinsmobility  posx  ETV
vector 3013  Scenario2.node[167].veinsmobility  posy  ETV
vector 2931  Scenario2.node[155].veinsmobility  acceleration  ETV
vector 2932  Scenario2.node[155].veinsmobility  co2emission  ETV
vector 2938  Scenario2.node[156].veinsmobility  acceleration  ETV
vector 2939  Scenario2.node[156].veinsmobility  co2emission  ETV
vector 2945  Scenario2.node[157].veinsmobility  acceleration  ETV
vector 2946  Scenario2.node[157].veinsmobility  co2emission  ETV
vector 2952  Scenario2.node[158].veinsmobility  acceleration  ETV
vector 2953  Scenario2.node[158].veinsmobility  co2emission  ETV
vector 2959  Scenario2.node[159].veinsmobility  acceleration  ETV
vector 2960  Scenario2.node[159].veinsmobility  co2emission  ETV
vector 2965  Scenario2.node[160].veinsmobility  speed  ETV
vector 2972  Scenario2.node[161].veinsmobility  speed  ETV
vector 2979  Scenario2.node[162].veinsmobility  speed  ETV
vector 2986  Scenario2.node[163].veinsmobility  speed  ETV
vector 2993  Scenario2.node[164].veinsmobility  speed  ETV
vector 3000  Scenario2.node[165].veinsmobility  speed  ETV
vector 3019  Scenario2.node[168].veinsmobility  posx  ETV
vector 3020  Scenario2.node[168].veinsmobility  posy  ETV
vector 3026  Scenario2.node[169].veinsmobility  posx  ETV
vector 3027  Scenario2.node[169].veinsmobility  posy  ETV
vector 3033  Scenario2.node[170].veinsmobility  posx  ETV
vector 3034  Scenario2.node[170].veinsmobility  posy  ETV
vector 3040  Scenario2.node[171].veinsmobility  posx  ETV
vector 3041  Scenario2.node[171].veinsmobility  posy  ETV
vector 3047  Scenario2.node[172].veinsmobility  posx  ETV
vector 3048  Scenario2.node[172].veinsmobility  posy  ETV
vector 2966  Scenario2.node[160].veinsmobility  acceleration  ETV
vector 2967  Scenario2.node[160].veinsmobility  co2emission  ETV
vector 2973  Scenario2.node[161].veinsmobility  acceleration  ETV
vector 2974  Scenario2.node[161].veinsmobility  co2emission  ETV
vector 2980  Scenario2.node[162].veinsmobility  acceleration  ETV
vector 2981  Scenario2.node[162].veinsmobility  co2emission  ETV
vector 2987  Scenario2.node[163].veinsmobility  acceleration  ETV
vector 2988  Scenario2.node[163].veinsmobility  co2emission  ETV
vector 2994  Scenario2.node[164].veinsmobility  acceleration  ETV
vector 2995  Scenario2.node[164].veinsmobility  co2emission  ETV
vector 3001  Scenario2.node[165].veinsmobility  acceleration  ETV
vector 3002  Scenario2.node[165].veinsmobility  co2emission  ETV
vector 3007  Scenario2.node[166].veinsmobility  speed  ETV
vector 3014  Scenario2.node[167].veinsmobility  speed  ETV
vector 3054  Scenario2.node[173].veinsmobility  posx  ETV
vector 3055  Scenario2.node[173].veinsmobility  posy  ETV
vector 3061  Scenario2.node[174].veinsmobility  posx  ETV
vector 3062  Scenario2.node[174].veinsmobility  posy  ETV
vector 3068  Scenario2.node[175].veinsmobility  posx  ETV
vector 3069  Scenario2.node[175].veinsmobility  posy  ETV
vector 3008  Scenario2.node[166].veinsmobility  acceleration  ETV
vector 3009  Scenario2.node[166].veinsmobility  co2emission  ETV
vector 3015  Scenario2.node[167].veinsmobility  acceleration  ETV
vector 3016  Scenario2.node[167].veinsmobility  co2emission  ETV
vector 3021  Scenario2.node[168].veinsmobility  speed  ETV
vector 3028  Scenario2.node[169].veinsmobility  speed  ETV
vector 3035  Scenario2.node[170].veinsmobility  speed  ETV
vector 3042  Scenario2.node[171].veinsmobility  speed  ETV
vector 3049  Scenario2.node[172].veinsmobility  speed  ETV
vector 3075  Scenario2.node[176].veinsmobility  posx  ETV
vector 3076  Scenario2.node[176].veinsmobility  posy  ETV
vector 3082  Scenario2.node[177].veinsmobility  posx  ETV
vector 3083  Scenario2.node[177].veinsmobility  posy  ETV
vector 3022  Scenario2.node[168].veinsmobility  acceleration  ETV
vector 3023  Scenario2.node[168].veinsmobility  co2emission  ETV
vector 3029  Scenario2.node[169].veinsmobility  acceleration  ETV
vector 3030  Scenario2.node[169].veinsmobility  co2emission  ETV
vector 3036  Scenario2.node[170].veinsmobility  acceleration  ETV
vector 3037  Scenario2.node[170].veinsmobility  co2emission  ETV
vector 3043  Scenario2.node[171].veinsmobility  acceleration  ETV
vector 3044  Scenario2.node[171].veinsmobility  co2emission  ETV
vector 3050  Scenario2.node[172].veinsmobility  acceleration  ETV
vector 3051  Scenario2.node[172].veinsmobility  co2emission  ETV
vector 3056  Scenario2.node[173].veinsmobility  speed  ETV
vector 3063  Scenario2.node[174].veinsmobility  speed  ETV
vector 3070  Scenario2.node[175].veinsmobility  speed  ETV
vector 3089  Scenario2.node[178].veinsmobility  posx  ETV
vector 3090  Scenario2.node[178].veinsmobility  posy  ETV
vector 3096  Scenario2.node[179].veinsmobility  posx  ETV
vector 3097  Scenario2.node[179].veinsmobility  posy  ETV
vector 3103  Scenario2.node[180].veinsmobility  posx  ETV
vector 3104  Scenario2.node[180].veinsmobility  posy  ETV
vector 3110  Scenario2.node[181].veinsmobility  posx  ETV
vector 3111  Scenario2.node[181].veinsmobility  posy  ETV
vector 3117  Scenario2.node[182].veinsmobility  posx  ETV
vector 3118  Scenario2.node[182].veinsmobility  posy  ETV
vector 3124  Scenario2.node[183].veinsmobility  posx  ETV
vector 3125  Scenario2.node[183].veinsmobility  posy  ETV
vector 3131  Scenario2.node[184].veinsmobility  posx  ETV
vector 3132  Scenario2.node[184].veinsmobility  posy  ETV
vector 3057  Scenario2.node[173].veinsmobility  acceleration  ETV
vector 3058  Scenario2.node[173].veinsmobility  co2emission  ETV
vector 3064  Scenario2.node[174].veinsmobility  acceleration  ETV
vector 3065  Scenario2.node[174].veinsmobility  co2emission  ETV
vector 3071  Scenario2.node[175].veinsmobility  acceleration  ETV
vector 3072  Scenario2.node[175].veinsmobility  co2emission  ETV
vector 3077  Scenario2.node[176].veinsmobility  speed  ETV
vector 3084  Scenario2.node[177].veinsmobility  speed  ETV
vector 3138  Scenario2.node[185].veinsmobility  posx  ETV
vector 3139  Scenario2.node[185].veinsmobility  posy  ETV
vector 3145  Scenario2.node[186].veinsmobility  posx  ETV
vector 3146  Scenario2.node[186].veinsmobility  posy  ETV
vector 3152  Scenario2.node[187].veinsmobility  posx  ETV
vector 3153  Scenario2.node[187].veinsmobility  posy  ETV
vector 3159  Scenario2.node[188].veinsmobility  posx  ETV
vector 3160  Scenario2.node[188].veinsmobility  posy  ETV
vector 3078  Scenario2.node[176].veinsmobility  acceleration  ETV
vector 3079  Scenario2.node[176].veinsmobility  co2emission  ETV
vector 3085  Scenario2.node[177].veinsmobility  acceleration  ETV
vector 3086  Scenario2.node[177].veinsmobility  co2emission  ETV
vector 3091  Scenario2.node[178].veinsmobility  speed  ETV
vector 3098  Scenario2.node[179].veinsmobility  speed  ETV
vector 3105  Scenario2.node[180].veinsmobility  speed  ETV
vector 3112  Scenario2.node[181].veinsmobility  speed  ETV
vector 3119  Scenario2.node[182].veinsmobility  speed  ETV
vector 3126  Scenario2.node[183].veinsmobility  speed  ETV
vector 3133  Scenario2.node[184].veinsmobility  speed  ETV
vector 3166  Scenario2.node[189].veinsmobility  posx  ETV
vector 3167  Scenario2.node[189].veinsmobility  posy  ETV
vector 3173  Scenario2.node[190].veinsmobility  posx  ETV
vector 3174  Scenario2.node[190].veinsmobility  posy  ETV
vector 3180  Scenario2.node[191].veinsmobility  posx  ETV
vector 3181  Scenario2.node[191].veinsmobility  posy  ETV
vector 3092  Scenario2.node[178].veinsmobility  acceleration  ETV
vector 3093  Scenario2.node[178].veinsmobility  co2emission  ETV
vector 3099  Scenario2.node[179].veinsmobility  acceleration  ETV
vector 3100  Scenario2.node[179].veinsmobility  co2emission  ETV
vector 3106  Scenario2.node[180].veinsmobility  acceleration  ETV
vector 3107  Scenario2.node[180].veinsmobility  co2emission  ETV
vector 3113  Scenario2.node[181].veinsmobility  acceleration  ETV
vector 3114  Scenario2.node[181].veinsmobility  co2emission  ETV
vector 3120  Scenario2.node[182].veinsmobility  acceleration  ETV
vector 3121  Scenario2.node[182].veinsmobility  co2emission  ETV
vector 3127  Scenario2.node[183].veinsmobility  acceleration  ETV
vector 3128  Scenario2.node[183].veinsmobility  co2emission  ETV
vector 3134  Scenario2.node[184].veinsmobility  acceleration  ETV
vector 3135  Scenario2.node[184].veinsmobility  co2emission  ETV
vector 3140  Scenario2.node[185].veinsmobility  speed  ETV
vector 3147  Scenario2.node[186].veinsmobility  speed  ETV
vector 3154  Scenario2.node[187].veinsmobility  speed  ETV
vector 3161  Scenario2.node[188].veinsmobility  speed  ETV
vector 3187  Scenario2.node[192].veinsmobility  posx  ETV
vector 3188  Scenario2.node[192].veinsmobility  posy  ETV
vector 3194  Scenario2.node[193].veinsmobility  posx  ETV
vector 3195  Scenario2.node[193].veinsmobility  posy  ETV
vector 3201  Scenario2.node[194].veinsmobility  posx  ETV
vector 3202  Scenario2.node[194].veinsmobility  posy  ETV
vector 3141  Scenario2.node[185].veinsmobility  acceleration  ETV
vector 3142  Scenario2.node[185].veinsmobility  co2emission  ETV
vector 3148  Scenario2.node[186].veinsmobility  acceleration  ETV
vector 3149  Scenario2.node[186].veinsmobility  co2emission  ETV
vector 3155  Scenario2.node[187].veinsmobility  acceleration  ETV
vector 3156  Scenario2.node[187].veinsmobility  co2emission  ETV
vector 3162  Scenario2.node[188].veinsmobility  acceleration  ETV
vector 3163  Scenario2.node[188].veinsmobility  co2emission  ETV
vector 3168  Scenario2.node[189].veinsmobility  speed  ETV
vector 3175  Scenario2.node[190].veinsmobility  speed  ETV
vector 3182  Scenario2.node[191].veinsmobility  speed  ETV
vector 3208  Scenario2.node[195].veinsmobility  posx  ETV
vector 3209  Scenario2.node[195].veinsmobility  posy  ETV
vector 3215  Scenario2.node[196].veinsmobility  posx  ETV
vector 3216  Scenario2.node[196].veinsmobility  posy  ETV
vector 3222  Scenario2.node[197].veinsmobility  posx  ETV
vector 3223  Scenario2.node[197].veinsmobility  posy  ETV
vector 3229  Scenario2.node[198].veinsmobility  posx  ETV
vector 3230  Scenario2.node[198].veinsmobility  posy  ETV
vector 3169  Scenario2.node[189].veinsmobility  acceleration  ETV
vector 3170  Scenario2.node[189].veinsmobility  co2emission  ETV
vector 3176  Scenario2.node[190].veinsmobility  acceleration  ETV
vector 3177  Scenario2.node[190].veinsmobility  co2emission  ETV
vector 3183  Scenario2.node[191].veinsmobility  acceleration  ETV
vector 3184  Scenario2.node[191].veinsmobility  co2emission  ETV
vector 3189  Scenario2.node[192].veinsmobility  speed  ETV
vector 3196  Scenario2.node[193].veinsmobility  speed  ETV
vector 3203  Scenario2.node[194].veinsmobility  speed  ETV
vector 3236  Scenario2.node[199].veinsmobility  posx  ETV
vector 3237  Scenario2.node[199].veinsmobility  posy  ETV
vector 3243  Scenario2.node[200].veinsmobility  posx  ETV
vector 3244  Scenario2.node[200].veinsmobility  posy  ETV
vector 3250  Scenario2.node[201].veinsmobility  posx  ETV
vector 3251  Scenario2.node[201].veinsmobility  posy  ETV
vector 3257  Scenario2.node[202].veinsmobility  posx  ETV
vector 3258  Scenario2.node[202].veinsmobility  posy  ETV
vector 3264  Scenario2.node[203].veinsmobility  posx  ETV
vector 3265  Scenario2.node[203].veinsmobility  posy  ETV
vector 3271  Scenario2.node[204].veinsmobility  posx  ETV
vector 3272  Scenario2.node[204].veinsmobility  posy  ETV
vector 3278  Scenario2.node[205].veinsmobility  posx  ETV
vector 3279  Scenario2.node[205].veinsmobility  posy  ETV
vector 3285  Scenario2.node[206].veinsmobility  posx  ETV
vector 3286  Scenario2.node[206].veinsmobility  posy  ETV
vector 3190  Scenario2.node[192].veinsmobility  acceleration  ETV
vector 3191  Scenario2.node[192].veinsmobility  co2emission  ETV
vector 3197  Scenario2.node[193].veinsmobility  acceleration  ETV
vector 3198  Scenario2.node[193].veinsmobility  co2emission  ETV
vector 3204  Scenario2.node[194].veinsmobility  acceleration  ETV
vector 3205  Scenario2.node[194].veinsmobility  co2emission  ETV
vector 3210  Scenario2.node[195].veinsmobility  speed  ETV
vector 3217  Scenario2.node[196].veinsmobility  speed  ETV
vector 3224  Scenario2.node[197].veinsmobility  speed  ETV
vector 3231  Scenario2.node[198].veinsmobility  speed  ETV
vector 3292  Scenario2.node[207].veinsmobility  posx  ETV
vector 3293  Scenario2.node[207].veinsmobility  posy  ETV
vector 3299  Scenario2.node[208].veinsmobility  posx  ETV
vector 3300  Scenario2.node[208].veinsmobility  posy  ETV
vector 3306  Scenario2.node[209].veinsmobility  posx  ETV
vector 3307  Scenario2.node[209].veinsmobility  posy  ETV
vector 3313  Scenario2.node[210].veinsmobility  posx  ETV
vector 3314  Scenario2.node[210].veinsmobility  posy  ETV
vector 3320  Scenario2.node[211].veinsmobility  posx  ETV
vector 3321  Scenario2.node[211].veinsmobility  posy  ETV
vector 3211  Scenario2.node[195].veinsmobility  acceleration  ETV
vector 3212  Scenario2.node[195].veinsmobility  co2emission  ETV
vector 3218  Scenario2.node[196].veinsmobility  acceleration  ETV
vector 3219  Scenario2.node[196].veinsmobility  co2emission  ETV
vector 3225  Scenario2.node[197].veinsmobility  acceleration  ETV
vector 3226  Scenario2.node[197].veinsmobility  co2emission  ETV
vector 3232  Scenario2.node[198].veinsmobility  acceleration  ETV
vector 3233  Scenario2.node[198].veinsmobility  co2emission  ETV
vector 3238  Scenario2.node[199].veinsmobility  speed  ETV
vector 3245  Scenario2.node[200].veinsmobility  speed  ETV
vector 3252  Scenario2.node[201].veinsmobility  speed  ETV
vector 3259  Scenario2.node[202].veinsmobility  speed  ETV
vector 3266  Scenario2.node[203].veinsmobility  speed  ETV
vector 3273  Scenario2.node[204].veinsmobility  speed  ETV
vector 3280  Scenario2.node[205].veinsmobility  speed  ETV
vector 3287  Scenario2.node[206].veinsmobility  speed  ETV
vector 3327  Scenario2.node[212].veinsmobility  posx  ETV
vector 3328  Scenario2.node[212].veinsmobility  posy  ETV
vector 3239  Scenario2.node[199].veinsmobility  acceleration  ETV
vector 3240  Scenario2.node[199].veinsmobility  co2emission  ETV
vector 3246  Scenario2.node[200].veinsmobility  acceleration  ETV
vector 3247  Scenario2.node[200].veinsmobility  co2emission  ETV
vector 3253  Scenario2.node[201].veinsmobility  acceleration  ETV
vector 3254  Scenario2.node[201].veinsmobility  co2emission  ETV
vector 3260  Scenario2.node[202].veinsmobility  acceleration  ETV
vector 3261  Scenario2.node[202].veinsmobility  co2emission  ETV
vector 3267  Scenario2.node[203].veinsmobility  acceleration  ETV
vector 3268  Scenario2.node[203].veinsmobility  co2emission  ETV
vector 3274  Scenario2.node[204].veinsmobility  acceleration  ETV
vector 3275  Scenario2.node[204].veinsmobility  co2emission  ETV
vector 3281  Scenario2.node[205].veinsmobility  acceleration  ETV
vector 3282  Scenario2.node[205].veinsmobility  co2emission  ETV
vector 3288  Scenario2.node[206].veinsmobility  acceleration  ETV
vector 3289  Scenario2.node[206].veinsmobility  co2emission  ETV
vector 3294  Scenario2.node[207].veinsmobility  speed  ETV
vector 3301  Scenario2.node[208].veinsmobility  speed  ETV
vector 3308  Scenario2.node[209].veinsmobility  speed  ETV
vector 3315  Scenario2.node[210].veinsmobility  speed  ETV
vector 3322  Scenario2.node[211].veinsmobility  speed  ETV
vector 3334  Scenario2.node[213].veinsmobility  posx  ETV
vector 3335  Scenario2.node[213].veinsmobility  posy  ETV
vector 3341  Scenario2.node[214].veinsmobility  posx  ETV
vector 3342  Scenario2.node[214].veinsmobility  posy  ETV
vector 3348  Scenario2.node[215].veinsmobility  posx  ETV
vector 3349  Scenario2.node[215].veinsmobility  posy  ETV
vector 3295  Scenario2.node[207].veinsmobility  acceleration  ETV
vector 3296  Scenario2.node[207].veinsmobility  co2emission  ETV
vector 3302  Scenario2.node[208].veinsmobility  acceleration  ETV
vector 3303  Scenario2.node[208].veinsmobility  co2emission  ETV
vector 3309  Scenario2.node[209].veinsmobility  acceleration  ETV
vector 3310  Scenario2.node[209].veinsmobility  co2emission  ETV
vector 3316  Scenario2.node[210].veinsmobility  acceleration  ETV
vector 3317  Scenario2.node[210].veinsmobility  co2emission  ETV
vector 3323  Scenario2.node[211].veinsmobility  acceleration  ETV
vector 3324  Scenario2.node[211].veinsmobility  co2emission  ETV
vector 3329  Scenario2.node[212].veinsmobility  speed  ETV
vector 3355  Scenario2.node[216].veinsmobility  posx  ETV
vector 3356  Scenario2.node[216].veinsmobility  posy  ETV
vector 3362  Scenario2.node[217].veinsmobility  posx  ETV
vector 3363  Scenario2.node[217].veinsmobility  posy  ETV
vector 3330  Scenario2.node[212].veinsmobility  acceleration  ETV
vector 3331  Scenario2.node[212].veinsmobility  co2emission  ETV
vector 3336  Scenario2.node[213].veinsmobility  speed  ETV
vector 3343  Scenario2.node[214].veinsmobility  speed  ETV
vector 3350  Scenario2.node[215].veinsmobility  speed  ETV
vector 3369  Scenario2.node[218].veinsmobility  posx  ETV
vector 3370  Scenario2.node[218].veinsmobility  posy  ETV
vector 3337  Scenario2.node[213].veinsmobility  acceleration  ETV
vector 3338  Scenario2.node[213].veinsmobility  co2emission  ETV
vector 3344  Scenario2.node[214].veinsmobility  acceleration  ETV
vector 3345  Scenario2.node[214].veinsmobility  co2emission  ETV
vector 3351  Scenario2.node[215].veinsmobility  acceleration  ETV
vector 3352  Scenario2.node[215].veinsmobility  co2emission  ETV
vector 3357  Scenario2.node[216].veinsmobility  speed  ETV
vector 3364  Scenario2.node[217].veinsmobility  speed  ETV
1973	72778	3	3.424186073528
1973	135403	4	4.2673718671564
1973	209120	5	5.4293630295082
1973	292959	6	6.3270905703103
1973	391228	7	7.7022246744888
1973	509515	8	8.7104953632682
1973	646761	9	9.8289763695466
1973	791705	10	10.611316769128
1973	948904	11	7.3251110541253
1973	1117069	12	2.4445168439792
1973	1296222	13	2.4876177622211
1973	1484220	14	3.0718225149136
1973	1680087	15	2.4372559184701
1973	1894833	16	2.8779826083362
1973	2146403	17	2.7002526060823
1973	2413019	18	2.5557791183461
1973	2699857	19	2.6499350526424
1973	2992018	20	2.2973436317725
1973	3303319	21	3.1051982340058
1973	3623773	22	2.4786464788078
1973	3950365	23	2.2939761026998
1973	4303567	24	2.9848311790316
1973	4671155	25	2.5703761728531
1973	5050450	26	2.6860852974567
1973	5438739	27	2.833137623609
1973	5842603	28	2.4213824354232
1973	6273407	29	2.7603018236822
1973	6723708	30	2.3057982171341
1973	7175381	31	2.8383445633221
1973	7636218	32	2.6107228197961
1973	8101289	33	2.5456615531333
1972	72778	3	1.9054944779584
1972	135403	4	1.8374724092055
1972	209120	5	1.9299509178125
1972	292959	6	1.8835326606664
1972	391228	7	1.9882752746646
1972	509515	8	1.9541321489913
1972	646761	9	1.9496658870741
1972	791705	10	1.8716125883511
1972	948904	11	1.0206170126054
1972	1117069	12	-0.04510551722953
1972	1296222	13	-0.034605004116894
1972	1484220	14	0.090302056369836
1972	1680087	15	-0.04695787533419
1972	1894833	16	0.047912030629814
1972	2146403	17	0.0087887768214578
1972	2413019	18	-0.022075829885438
1972	2699857	19	-0.001441522922832
1972	2992018	20	-0.076385249120648
1972	3303319	21	0.09732628874248
1972	3623773	22	-0.038369091975039
1972	3950365	23	-0.076625494612379
1972	4303567	24	0.072568178579676
1972	4671155	25	-0.0176113764802
1972	5050450	26	0.0074977208580833
1972	5438739	27	0.038386369666551
1972	5842603	28	-0.05013331344351
1972	6273407	29	0.023363622264004
1972	6723708	30	-0.074028652922717
1972	7175381	31	0.041567745264622
1972	7636218	32	-0.0080868506571292
1972	8101289	33	-0.021683781223839
1971	22905	2	2.6377290236039
1971	72778	3	4.5432235015623
1971	135403	4	6.3806959107678
1971	209120	5	8.3106468285803
1971	292959	6	10.194179489247
1971	391228	7	12.182454763911
1971	509515	8	14.136586912903
1971	646761	9	16.086252799977
1971	791705	10	17.957865388328
1971	948904	11	18.978482400933
1971	1117069	12	18.933376883704
1971	1296222	13	18.898771879587
1971	1484220	14	18.989073935957
1971	1680087	15	18.942116060623
1971	1894833	16	18.990028091252
1971	2146403	17	18.998816868074
1971	2413019	18	18.976741038188
1971	2699857	19	18.975299515266
1971	2992018	20	18.898914266145
1971	3303319	21	18.996240554887
1971	3623773	22	18.957871462912
1971	3950365	23	18.8812459683
1971	4303567	24	18.95381414688
1971	4671155	25	18.936202770399
1971	5050450	26	18.943700491257
1971	5438739	27	18.982086860924
1971	5842603	28	18.931953547481
1971	6273407	29	18.955317169745
1971	6723708	30	18.881288516822
1971	7175381	31	18.922856262086
1971	7636218	32	18.914769411429
1971	8101289	33	18.893085630205
1970	2	1	489.37302299786
1970	22905	2	489.37302299786
1970	72778	3	491.41373091347
1970	135403	4	495.03966722545
1970	209120	5	500.60075653665
1970	292959	6	508.08830073175
1970	391228	7	517.35888762623
1970	509515	8	528.25022732736
1970	646761	9	541.56546678271
1970	791705	10	556.76298066021
1970	948904	11	573.89565236671
1970	1117069	12	592.6439223081
1970	1296222	13	611.57807085518
1970	1484220	14	630.50321320816
1970	1680087	15	649.45385614268
1970	1894833	16	668.37811843908
1970	2146403	17	687.32370699906
1970	2413019	18	706.2593690591
1970	2699857	19	725.18717249598
1970	2992018	20	744.14270229419
1970	3303319	21	763.06861112101
1970	3623773	22	781.99254824094
1970	3950365	23	800.95099396162
1970	4303567	24	819.88285070069
1970	4671155	25	838.83020686602
1970	5050450	26	857.76238949954
1970	5438739	27	876.70506109562
1970	5842603	28	895.65416028153
1970	6273407	29	914.59901503073
1970	6723708	30	933.53500191392
1970	7175381	31	952.47820410811
1970	7636218	32	971.4186123894
1970	8101289	33	990.35963494294
1969	2	1	516.75
1969	22905	2	516.75
1969	72778	3	520.05
1969	135403	4	520.05
1969	209120	5	520.05
1969	292959	6	520.05
1969	391228	7	520.44930053119
1969	509515	8	523.18853379094
1969	646761	9	523.35
1969	791705	10	523.35
1969	948904	11	523.35
1969	1117069	12	523.35
1969	1296222	13	523.35
1969	1484220	14	523.35
1969	1680087	15	523.35
1969	1894833	16	523.35
1969	2146403	17	523.35
1969	2413019	18	523.35
1969	2699857	19	523.35
1969	2992018	20	523.35
1969	3303319	21	523.35
1969	3623773	22	523.35
1969	3950365	23	523.35
1969	4303567	24	523.35
1969	4671155	25	523.35
1969	5050450	26	523.35
1969	5438739	27	523.35
1969	5842603	28	523.35
1969	6273407	29	523.35
1969	6723708	30	523.35
1969	7175381	31	523.35
1969	7636218	32	523.35
1969	8101289	33	523.35
vector 3376  Scenario2.node[219].veinsmobility  posx  ETV
vector 3377  Scenario2.node[219].veinsmobility  posy  ETV
vector 3383  Scenario2.node[220].veinsmobility  posx  ETV
vector 3384  Scenario2.node[220].veinsmobility  posy  ETV
vector 3358  Scenario2.node[216].veinsmobility  acceleration  ETV
vector 3359  Scenario2.node[216].veinsmobility  co2emission  ETV
vector 3365  Scenario2.node[217].veinsmobility  acceleration  ETV
vector 3366  Scenario2.node[217].veinsmobility  co2emission  ETV
vector 3371  Scenario2.node[218].veinsmobility  speed  ETV
2351	209120	5	4.7316755435645
2351	292959	6	4.9051580824501
2351	391228	7	6.0581504651032
2351	509515	8	7.4785892585194
2351	646761	9	8.6690437332755
2351	791705	10	10.291885771387
2351	948904	11	11.273591646931
2351	1117069	12	6.8518405464222
2351	1296222	13	3.0097710607217
2351	1484220	14	2.7232258021444
2351	1680087	15	2.4324483289492
2351	1894833	16	2.5980672486686
2351	2146403	17	2.7085941698292
2351	2413019	18	2.8075267219489
2351	2699857	19	2.6422573982465
2351	2992018	20	2.5528581412144
2351	3303319	21	2.3640103637205
2351	3623773	22	2.6066102432032
2351	3950365	23	2.7371177789594
2351	4303567	24	2.7364453884878
2351	4671155	25	3.0311658803436
2351	5050450	26	2.2490704447112
2351	5438739	27	2.8437145592489
2351	5842603	28	2.7137253298407
2351	6273407	29	2.484498513087
2351	6723708	30	2.6007767719529
2351	7175381	31	3.0138177841163
2351	7636218	32	2.364427762292
2351	8101289	33	2.6355156752125
2351	8758472	34	2.8022908671468
2350	209120	5	2.1615680599981
2350	292959	6	1.7305736745195
2350	391228	7	1.8381892520073
2350	509515	8	1.9732625970873
2350	646761	9	1.9902147069783
2350	791705	10	2.0916458517383
2350	948904	11	2.0230429894431
2350	1117069	12	0.92406570396074
2350	1296222	13	0.077423213708681
2350	1484220	14	0.014274460827
2350	1680087	15	-0.047853199748786
2350	1894833	16	-0.01120755229611
2350	2146403	17	0.012608754360116
2350	2413019	18	0.033153221316173
2350	2699857	19	-0.0029006841802044
2350	2992018	20	-0.021777591391
2350	3303319	21	-0.061353818620557
2350	3623773	22	-0.0078023461694841
2350	3950365	23	0.020208776644431
2350	4303567	24	0.019413260603326
2350	4671155	25	0.081081733922474
2350	5050450	26	-0.087316996220036
2350	5438739	27	0.041715242904612
2350	5842603	28	0.012832115583588
2350	6273407	29	-0.036217993441969
2350	6723708	30	-0.01039880263852
2350	7175381	31	0.077366399432066
2350	7636218	32	-0.062663024023639
2350	8101289	33	-0.0031514658965186
2350	8758472	34	0.032303076316602
2349	135403	4	4.160416336859
2349	209120	5	6.3219843968571
2349	292959	6	8.0525580713766
2349	391228	7	9.8907473233839
2349	509515	8	11.864009920471
2349	646761	9	13.854224627449
2349	791705	10	15.945870479188
2349	948904	11	17.968913468631
2349	1117069	12	18.892979172592
2349	1296222	13	18.9704023863
2349	1484220	14	18.984676847127
2349	1680087	15	18.936823647378
2349	1894833	16	18.925616095082
2349	2146403	17	18.938224849442
2349	2413019	18	18.971378070759
2349	2699857	19	18.968477386578
2349	2992018	20	18.946699795187
2349	3303319	21	18.885345976567
2349	3623773	22	18.877543630397
2349	3950365	23	18.897752407042
2349	4303567	24	18.917165667645
2349	4671155	25	18.998247401568
2349	5050450	26	18.910930405348
2349	5438739	27	18.952645648252
2349	5842603	28	18.965477763836
2349	6273407	29	18.929259770394
2349	6723708	30	18.918860967755
2349	7175381	31	18.996227367187
2349	7636218	32	18.933564343164
2349	8101289	33	18.930412877267
2349	8758472	34	18.962715953584
2348	72778	3	489.73864672193
2348	135403	4	489.73864672193
2348	209120	5	492.98003002016
2348	292959	6	498.32754644413
2348	391228	7	505.60924259689
2348	509515	8	514.66302819805
2348	646761	9	523.35
2348	791705	10	523.35
2348	948904	11	523.35
2348	1117069	12	523.35
2348	1296222	13	523.35
2348	1484220	14	523.35
2348	1680087	15	523.35
2348	1894833	16	523.35
2348	2146403	17	523.35
2348	2413019	18	523.35
2348	2699857	19	523.35
2348	2992018	20	523.35
2348	3303319	21	523.35
2348	3623773	22	523.35
2348	3950365	23	523.35
2348	4303567	24	523.35
2348	4671155	25	523.35
2348	5050450	26	523.35
2348	5438739	27	523.35
2348	5842603	28	523.35
2348	6273407	29	523.35
2348	6723708	30	523.35
2348	7175381	31	523.35
2348	7636218	32	523.35
2348	8101289	33	523.35
2348	8758472	34	523.35
2347	72778	3	513.45
2347	135403	4	513.45
2347	209120	5	513.45
2347	292959	6	513.45
2347	391228	7	513.45
2347	509515	8	513.40460486848
2347	646761	9	509.25043089817
2347	791705	10	496.3150453671
2347	948904	11	481.25281989485
2347	1117069	12	464.16840363446
2347	1296222	13	445.40514506171
2347	1484220	14	426.46394567559
2347	1680087	15	407.51236342738
2347	1894833	16	388.59107832765
2347	2146403	17	369.65304702062
2347	2413019	18	350.71693647347
2347	2699857	19	331.7656597501
2347	2992018	20	312.80845736749
2347	3303319	21	293.87383171949
2347	3623773	22	274.94099353533
2347	3950365	23	256.00994364585
2347	4303567	24	237.06853060078
2347	4671155	25	218.12186101457
2347	5050450	26	199.17830554817
2347	5438739	27	180.25509100849
2347	5842603	28	161.34723833145
2347	6273407	29	142.42092681157
2347	6723708	30	123.47203102432
2347	7175381	31	104.56038120126
2347	7636218	32	85.612057304691
2347	8101289	33	66.683459538365
2347	8758472	34	47.735398784356
vector 3390  Scenario2.node[221].veinsmobility  posx  ETV
vector 3391  Scenario2.node[221].veinsmobility  posy  ETV
vector 3372  Scenario2.node[218].veinsmobility  acceleration  ETV
vector 3373  Scenario2.node[218].veinsmobility  co2emission  ETV
vector 3378  Scenario2.node[219].veinsmobility  speed  ETV
vector 3385  Scenario2.node[220].veinsmobility  speed  ETV
1980	72778	3	3.7719831489658
1980	135403	4	4.760697120825
1980	209120	5	5.2987022465328
1980	292959	6	5.7109864113182
1980	391228	7	5.8506916427494
1980	509515	8	7.8417119124831
1980	646761	9	8.2452257767773
1980	791705	10	9.6704313836528
1980	948904	11	7.442188577704
1980	1117069	12	3.3815838516294
1980	1296222	13	3.4043415241472
1980	1484220	14	2.7102683283387
1980	1680087	15	2.4830532438919
1980	1894833	16	3.3779871298169
1980	2146403	17	2.6900797349405
1980	2413019	18	3.243897962185
1980	2699857	19	2.8389665687561
1980	2992018	20	2.4443310300978
1980	3303319	21	2.9369170332913
1980	3623773	22	2.8132227387553
1980	3950365	23	2.4892504127376
1980	4303567	24	2.9936549810028
1980	4671155	25	2.6044213054676
1980	5050450	26	2.8889126700617
1980	5438739	27	2.4620180486858
1980	5842603	28	2.6393748972385
1980	6273407	29	2.3107264046139
1980	6723708	30	2.7690958266136
1980	7175381	31	2.7498333438102
1980	7636218	32	2.7750967041177
1980	8101289	33	2.3516401941196
1980	8758472	34	3.0829115688202
1980	9227617	35	2.7648491193071
[...]
2957	12069043	41	516.75
2957	12530705	42	516.75
2957	12995300	43	516.75
2957	13456288	44	520.05
2957	13917547	45	520.05
2957	14377727	46	520.05
2957	14840701	47	520.05
2957	15305553	48	520.05
2957	15770493	49	520.05
2957	16240137	50	520.05
2957	16702299	51	520.05
2957	17168571	52	520.05
2957	17628744	53	520.05
2957	18094014	54	520.05
2957	18554095	55	520.05
2957	19020016	56	520.05
2957	19480113	57	523.35
2957	19941965	58	523.35
2957	20402134	59	523.35
2957	20864395	60	523.35
2956	2146403	17	1022.3236122951
2956	2413019	18	1022.3236122951
2956	2699857	19	1020.5631362916
2956	2992018	20	1016.7377932634
2956	3303319	21	1010.9083858644
2956	3623773	22	1003.158013997
2956	3950365	23	993.59117519842
2956	4303567	24	982.16152716145
2956	4671155	25	968.63714015413
2956	5050450	26	953.1502942214
2956	5438739	27	935.61274882145
2956	5842603	28	916.69269945532
2956	6273407	29	897.73975916398
2956	6723708	30	878.81564539461
2956	7175381	31	859.87329071302
2956	7636218	32	840.93118401661
2956	8101289	33	821.99466137792
2956	8758472	34	803.06863887061
2956	9227617	35	784.13778399179
2956	9730856	36	765.19571201665
2956	10200300	37	746.24880645056
2956	10669049	38	727.31697696069
2956	11137038	39	708.38865430079
2956	11602303	40	689.45239117134
2956	12069043	41	670.50728344899
2956	12530705	42	651.70373733218
2956	12995300	43	634.44275000258
2956	13456288	44	618.07087205585
2956	13917547	45	602.21354974035
2956	14377727	46	589.08010919564
2956	14840701	47	578.56950407844
2956	15305553	48	570.40864437964
2956	15770493	49	564.02833848472
2956	16240137	50	558.37011689116
2956	16702299	51	552.45543123141
2956	17168571	52	545.55923016559
2956	17628744	53	537.16243107874
2956	18094014	54	527.13330610309
2956	18554095	55	515.43918453333
2956	19020016	56	501.93117549223
2956	19480113	57	486.52223351469
2956	19941965	58	469.08938065412
2956	20402134	59	450.19593369352
2956	20864395	60	431.2417989337
3016	3303319	21	4.216512450195
3016	3623773	22	5.3862162646769
3016	3950365	23	6.3770943209381
3016	4303567	24	7.3553060439855
3016	4671155	25	8.2984129465302
3016	5050450	26	9.3072327753418
3016	5438739	27	10.295208033162
3016	5842603	28	9.7646410857889
3016	6273407	29	2.5336853199177
3016	6723708	30	2.9982308027586
3016	7175381	31	2.6479394956282
3016	7636218	32	2.8803755569912
3016	8101289	33	2.4749145044464
3016	8758472	34	2.8196993044066
3016	9227617	35	2.3402397927563
3016	9730856	36	2.6844720009786
3016	10200300	37	2.9577234996335
3016	10669049	38	2.5334924495598
3016	11137038	39	2.2363843077513
3016	11602303	40	3.0275260151028
3016	12069043	41	2.5344807932943
3016	12530705	42	0.973
3016	12995300	43	2.6121577353336
3016	13456288	44	0.973
3016	13917547	45	0.973
3016	14377727	46	0.973
3016	14840701	47	0.973
3016	15305553	48	0.973
3016	15770493	49	0.973
3016	16240137	50	1.6849388203559
3016	16702299	51	3.1625080320746
3016	17168571	52	4.3907129322435
3016	17628744	53	5.640565850072
3016	18094014	54	4.9142501227037
3016	18554095	55	4.1961539958094
3016	19020016	56	4.0479014199599
3016	19480113	57	3.9504814219488
3016	19941965	58	4.2295817549594
3016	20402134	59	3.3909257741825
3016	20864395	60	4.2171829300135
3015	3303319	21	2.1356146661914
3015	3623773	22	2.1114900068124
3015	3950365	23	2.0324787611538
3015	4303567	24	1.9792897433578
3015	4671155	25	1.9314267522492
3015	5050450	26	1.9090627141343
3015	5438739	27	1.8828427932668
3015	5842603	28	1.5628862132028
3015	6273407	29	-0.023815483336801
3015	6723708	30	0.075546800638548
3015	7175381	31	-0.0011083647096548
3015	7636218	32	0.048101859830787
3015	8101289	33	-0.039259637952782
3015	8758472	34	0.034996462189593
3015	9227617	35	-0.067789869762493
3015	9730856	36	0.0074310169415526
3015	10200300	37	0.064981269747953
3015	10669049	38	-0.02683587621199
3015	11137038	39	-0.08935069723055
3015	11602303	40	0.081496208284516
3015	12069043	41	-0.02558377190493
3015	12530705	42	-0.87124289392652
3015	12995300	43	0.019035252342093
3015	13456288	44	-1.3057804778736
3015	13917547	45	-1.2121702825438
3015	14377727	46	-2.2328182640172
3015	14840701	47	-1.7378093957643
3015	15305553	48	-1.3740283211083
3015	15770493	49	-0.54115744707823
3015	16240137	50	0.00992003939119
3015	16702299	51	0.58767899469757
3015	17168571	52	0.9621247854754
3015	17628744	53	1.245328435417
3015	18094014	54	0.9092131993871
3015	18554095	55	0.63675690454783
3015	19020016	56	0.55387173204356
3015	19480113	57	0.49407804319556
3015	19941965	58	0.53515571336301
3015	20402134	59	0.29741975031115
3015	20864395	60	0.48299619771874
3014	2992018	20	3.3557482195866
3014	3303319	21	5.491362885778
3014	3623773	22	7.6028528925904
3014	3950365	23	9.6353316537442
3014	4303567	24	11.614621397102
3014	4671155	25	13.546048149351
3014	5050450	26	15.455110863486
3014	5438739	27	17.337953656752
3014	5842603	28	18.900839869955
3014	6273407	29	18.877024386618
3014	6723708	30	18.952571187257
3014	7175381	31	18.951462822547
3014	7636218	32	18.999564682378
3014	8101289	33	18.960305044425
3014	8758472	34	18.995301506615
3014	9227617	35	18.927511636852
3014	9730856	36	18.934942653794
3014	10200300	37	18.999923923542
3014	10669049	38	18.97308804733
3014	11137038	39	18.883737350099
3014	11602303	40	18.965233558384
3014	12069043	41	18.939649786479
3014	12530705	42	18.068406892552
3014	12995300	43	18.087442144894
3014	13456288	44	16.781661667021
3014	13917547	45	15.569491384477
3014	14377727	46	13.33667312046
3014	14840701	47	11.598863724695
3014	15305553	48	10.224835403587
3014	15770493	49	9.683677956509
3014	16240137	50	9.6935979959001
3014	16702299	51	10.281276990598
3014	17168571	52	11.243401776073
3014	17628744	53	12.48873021149
3014	18094014	54	13.397943410877
3014	18554095	55	14.034700315425
3014	19020016	56	14.588572047469
3014	19480113	57	15.082650090664
3014	19941965	58	15.617805804027
3014	20402134	59	15.915225554338
3014	20864395	60	16.398221752057
3013	2699857	19	516.75
3013	2992018	20	516.75
3013	3303319	21	516.75
3013	3623773	22	516.75
3013	3950365	23	516.75
3013	4303567	24	516.75
3013	4671155	25	516.75
3013	5050450	26	516.75
3013	5438739	27	516.75
3013	5842603	28	516.75
3013	6273407	29	516.75
3013	6723708	30	516.75
3013	7175381	31	516.75
3013	7636218	32	516.75
3013	8101289	33	516.75
3013	8758472	34	516.75
3013	9227617	35	516.75
3013	9730856	36	516.75
3013	10200300	37	516.75
3013	10669049	38	516.75
3013	11137038	39	516.75
3013	11602303	40	516.75
3013	12069043	41	516.75
3013	12530705	42	516.75
3013	12995300	43	516.75
3013	13456288	44	516.75
3013	13917547	45	516.75
3013	14377727	46	516.75
3013	14840701	47	516.75
3013	15305553	48	516.75
3013	15770493	49	516.75
3013	16240137	50	516.75
3013	16702299	51	516.75
3013	17168571	52	516.75
3013	17628744	53	516.75
3013	18094014	54	516.75
3013	18554095	55	516.75
3013	19020016	56	516.75
3013	19480113	57	516.75
3013	19941965	58	516.75
3013	20402134	59	516.75
3013	20864395	60	516.75
3012	2699857	19	1022.0301223929
3012	2992018	20	1022.0301223929
3012	3303319	21	1019.5999379781
3012	3623773	22	1015.0700258381
3012	3950365	23	1008.4517329913
3012	4303567	24	999.72954820001
3012	4671155	25	989.07438661176
3012	5050450	26	976.39697633802
3012	5438739	27	961.82677880217
3012	5842603	28	945.36544511893
3012	6273407	29	927.01405822887
3012	6723708	30	908.08731410499
3012	7175381	31	889.15489809776
3012	7636218	32	870.22216798169
3012	8101289	33	851.27613134067
3012	8758472	34	832.3303871677
3012	9227617	35	813.39509931841
3012	9730856	36	794.4484746149
3012	10200300	37	775.52410028274
3012	10669049	38	756.59280667697
3012	11137038	39	737.66449653262
3012	11602303	40	718.73254886217
3012	12069043	41	699.78583258532
3012	12530705	42	680.84716670418
3012	12995300	43	662.12357505948
3012	13456288	44	644.32356463772
3012	13917547	45	626.88771229524
3012	14377727	46	610.4452857174
3012	14840701	47	596.12265230938
3012	15305553	48	583.75110800048
3012	15770493	49	572.90888901042
3012	16240137	50	563.05158170869
3012	16702299	51	553.41973718936
3012	17168571	52	543.44934738385
3012	17628744	53	532.64992712818
3012	18094014	54	520.6740053756
3012	18554095	55	507.71791317682
3012	19020016	56	494.04714859581
3012	19480113	57	479.75526503164
3012	19941965	58	464.89420249137
3012	20402134	59	449.54177106014
3012	20864395	60	433.73361650199
3072	3950365	23	3.8677011846555
3072	4303567	24	4.2942811393831
3072	4671155	25	5.3405321480251
3072	5050450	26	6.2389118474958
3072	5438739	27	8.3498519794533
3072	5842603	28	9.3934455122852
3072	6273407	29	10.881928887282
3072	6723708	30	11.772803564808
3072	7175381	31	3.0623425032563
3072	7636218	32	2.5341846544925
3072	8101289	33	2.559601712092
3072	8758472	34	2.7739125933632
3072	9227617	35	2.357661026054
3072	9730856	36	2.8380804507159
3072	10200300	37	2.715980551427
3072	10669049	38	2.9301897070365
3072	11137038	39	2.1313778799875
3072	11602303	40	3.1715453864723
3072	12069043	41	2.4967630903419
3072	12530705	42	2.8137016357796
3072	12995300	43	2.3526488033652
3072	13456288	44	2.7020632841273
3072	13917547	45	2.805875520971
3072	14377727	46	0.973
3072	14840701	47	0.973
3072	15305553	48	0.973
3072	15770493	49	0.973
3072	16240137	50	0.973
3072	16702299	51	1.2191429180566
3072	17168571	52	3.0225535840192
3072	17628744	53	3.8371517979278
3072	18094014	54	4.066599171637
3072	18554095	55	4.1402942650207
3072	19020016	56	3.9013066313864
3072	19480113	57	3.2502038668895
3072	19941965	58	3.796201901497
3072	20402134	59	4.2032551524124
3072	20864395	60	3.422359030021
3071	3950365	23	1.882553797646
3071	4303567	24	1.6402901837439
3071	4671155	25	1.7518751379661
3071	5050450	26	1.7610616160254
3071	5438739	27	2.1000327823032
3071	5842603	28	2.0446523583727
3071	6273407	29	2.0961114637111
3071	6723708	30	2.0084872874408
3071	7175381	31	0.089453201193379
3071	7636218	32	-0.025371306005397
3071	8101289	33	-0.019199138833212
3071	8758472	34	0.026913571886254
3071	9227617	35	-0.062476139746142
3071	9730856	36	0.041690279021861
3071	10200300	37	0.014431107903363
3071	10669049	38	0.059273027013987
3071	11137038	39	-0.1123000999284
3071	11602303	40	0.11201716032578
3071	12069043	41	-0.034367598942481
3071	12530705	42	0.033849164377898
3071	12995300	43	-0.065012000347487
3071	13456288	44	0.011226462612395
3071	13917547	45	0.032852661963553
3071	14377727	46	-1.9134694921698
3071	14840701	47	-1.950153396324
3071	15305553	48	-1.5357039440037
3071	15770493	49	-1.2373564358076
3071	16240137	50	-0.59031125719059
3071	16702299	51	-0.21185540994036
3071	17168571	52	0.40980035581687
3071	17628744	53	0.63875031712172
3071	18094014	54	0.65933842300145
3071	18554095	55	0.63255156942464
3071	19020016	56	0.52492789403794
3071	19480113	57	0.3202628714367
3071	19941965	58	0.44677714751112
3071	20402134	59	0.52371399199169
3071	20864395	60	0.30194029441495
3070	3623773	22	3.5815561515633
3070	3950365	23	5.4641099492092
3070	4303567	24	7.1044001329532
3070	4671155	25	8.8562752709193
3070	5050450	26	10.617336886945
3070	5438739	27	12.717369669248
3070	5842603	28	14.762022027621
3070	6273407	29	16.858133491332
3070	6723708	30	18.866620778772
3070	7175381	31	18.956073979966
3070	7636218	32	18.93070267396
3070	8101289	33	18.911503535127
3070	8758472	34	18.938417107014
3070	9227617	35	18.875940967267
3070	9730856	36	18.917631246289
3070	10200300	37	18.932062354193
3070	10669049	38	18.991335381207
3070	11137038	39	18.879035281278
3070	11602303	40	18.991052441604
3070	12069043	41	18.956684842661
3070	12530705	42	18.990534007039
3070	12995300	43	18.925522006692
3070	13456288	44	18.936748469304
3070	13917547	45	18.969601131268
3070	14377727	46	17.056131639098
3070	14840701	47	15.105978242774
3070	15305553	48	13.57027429877
3070	15770493	49	12.332917862963
3070	16240137	50	11.742606605772
3070	16702299	51	11.530751195832
3070	17168571	52	11.940551551649
3070	17628744	53	12.57930186877
3070	18094014	54	13.238640291772
3070	18554095	55	13.871191861196
3070	19020016	56	14.396119755234
3070	19480113	57	14.716382626671
3070	19941965	58	15.163159774182
3070	20402134	59	15.686873766174
3070	20864395	60	15.988814060589
3069	3303319	21	516.75
3069	3623773	22	516.75
3069	3950365	23	516.75
3069	4303567	24	516.75
3069	4671155	25	516.75
3069	5050450	26	516.75
3069	5438739	27	516.75
3069	5842603	28	516.75
3069	6273407	29	516.75
3069	6723708	30	516.75
3069	7175381	31	516.75
3069	7636218	32	516.75
3069	8101289	33	516.75
3069	8758472	34	516.75
3069	9227617	35	516.75
3069	9730856	36	516.75
3069	10200300	37	516.75
3069	10669049	38	516.75
3069	11137038	39	516.75
3069	11602303	40	516.75
3069	12069043	41	516.75
3069	12530705	42	516.75
3069	12995300	43	516.75
3069	13456288	44	516.75
3069	13917547	45	516.75
3069	14377727	46	516.75
3069	14840701	47	516.75
3069	15305553	48	516.75
3069	15770493	49	516.75
3069	16240137	50	516.75
3069	16702299	51	516.75
3069	17168571	52	516.75
3069	17628744	53	516.75
3069	18094014	54	516.75
3069	18554095	55	516.75
3069	19020016	56	516.75
3069	19480113	57	516.75
3069	19941965	58	516.75
3069	20402134	59	516.75
3069	20864395	60	516.75
3068	3303319	21	1021.5639853999
3068	3623773	22	1021.5639853999
3068	3950365	23	1018.7959860005
3068	4303567	24	1014.2308528414
3068	4671155	25	1007.891059054
3068	5050450	26	999.83770183489
3068	5438739	27	990.00164531386
3068	5842603	28	978.16884754498
3068	6273407	29	964.3205190245
3068	6723708	30	948.33256084241
3068	7175381	31	930.43825375499
3068	7636218	32	911.4949127711
3068	8101289	33	892.55875836142
3068	8758472	34	873.63433506154
3068	9227617	35	854.71000987495
3068	9730856	36	835.78273533983
3068	10200300	37	816.85726254194
3068	10669049	38	797.90870130069
3068	11137038	39	778.98183852756
3068	11602303	40	760.04721428064
3068	12069043	41	741.11414306205
3068	12530705	42	722.16647738374
3068	12995300	43	703.23429255256
3068	13456288	44	684.29153185449
3068	13917547	45	665.35870392064
3068	14377727	46	646.3993263259
3068	14840701	47	628.40517942276
3068	15305553	48	612.40909741193
3068	15770493	49	598.14841471628
3068	16240137	50	585.31290459727
3068	16702299	51	573.36741451588
3068	17168571	52	561.79223416155
3068	17628744	53	550.07059691489
3068	18094014	54	537.76157577721
3068	18554095	55	524.79452559258
3068	19020016	56	511.22568767267
3068	19480113	57	497.16373382973
3068	19941965	58	482.60438487205
3068	20402134	59	467.58038922999
3068	20864395	60	452.12194713699
3086	4303567	24	3.3405828348056
3086	4671155	25	4.5946544722034
3086	5050450	26	5.8080077821421
3086	5438739	27	7.0847371913696
3086	5842603	28	7.3917833262019
3086	6273407	29	8.6149289053531
3086	6723708	30	9.8000711805634
3086	7175381	31	10.750113891002
3086	7636218	32	6.500019658096
3086	8101289	33	2.7133888571628
3086	8758472	34	2.4539593427191
3086	9227617	35	3.0728537470299
3086	9730856	36	2.5923449244697
3086	10200300	37	2.7140497517014
3086	10669049	38	2.239956088889
3086	11137038	39	2.8004026356396
3086	11602303	40	2.6489295160759
3086	12069043	41	2.5065089729708
3086	12530705	42	2.7566887669531
3086	12995300	43	2.7444756132656
3086	13456288	44	2.4562548653686
3086	13917547	45	2.7906224766462
3086	14377727	46	0.973
3086	14840701	47	0.973
3086	15305553	48	7.8898315878971
3086	15770493	49	0.973
3086	16240137	50	0.973
3086	16702299	51	0.973
3086	17168571	52	0.973
3086	17628744	53	3.0510777535633
3086	18094014	54	4.3779892895631
3086	18554095	55	6.1351254612122
3086	19020016	56	8.289009985521
3086	19480113	57	10.618365104794
3086	19941965	58	6.7323228863455
3086	20402134	59	3.2197731870262
3086	20864395	60	2.2852922393108
3085	4303567	24	1.9796642058007
3085	4671155	25	2.0763898287131
3085	5050450	26	2.0929232014809
3085	5438739	27	2.1147708464251
3085	5842603	28	1.8490855900757
3085	6273407	29	1.9040541440831
3085	6723708	30	1.9257227184298
3085	7175381	31	1.8866436578147
3085	7636218	32	0.84421743451647
3085	8101289	33	0.013598634169902
3085	8758472	34	-0.041974285661709
3085	9227617	35	0.090543947562111
3085	9730856	36	-0.014013255240862
3085	10200300	37	0.012198352192062
3085	10669049	38	-0.088955869120547
3085	11137038	39	0.03297594784992
3085	11602303	40	-0.00021782808471471
3085	12069043	41	-0.030498599680143
3085	12530705	42	0.023632375625894
3085	12995300	43	0.020276502741037
3085	13456288	44	-0.041601035415663
3085	13917547	45	0.030752643921879
3085	14377727	46	-0.71101064703823
3085	14840701	47	-0.90275202486107
3085	15305553	48	1.1885319023436
3085	15770493	49	-2.5299049058435
3085	16240137	50	-1.9431436705479
3085	16702299	51	-1.2401836033678
3085	17168571	52	-0.50352886400703
3085	17628744	53	0.37426889439192
3085	18094014	54	0.74229116907772
3085	18554095	55	1.1508153236595
3085	19020016	56	1.5496438655215
3085	19480113	57	1.8704185609799
3085	19941965	58	0.89904013142474
3085	20402134	59	0.12221195729915
3085	20864395	60	-0.079631332401188
3084	3950365	23	2.2529883940338
3084	4303567	24	4.2326525998345
3084	4671155	25	6.3090424285477
3084	5050450	26	8.4019656300286
3084	5438739	27	10.516736476454
3084	5842603	28	12.365822066529
3084	6273407	29	14.269876210612
3084	6723708	30	16.195598929042
3084	7175381	31	18.082242586857
3084	7636218	32	18.926460021373
3084	8101289	33	18.940058655543
3084	8758472	34	18.898084369882
3084	9227617	35	18.988628317444
3084	9730856	36	18.974615062203
3084	10200300	37	18.986813414395
3084	10669049	38	18.897857545274
3084	11137038	39	18.930833493124
3084	11602303	40	18.93061566504
3084	12069043	41	18.900117065359
3084	12530705	42	18.923749440985
3084	12995300	43	18.944025943726
3084	13456288	44	18.902424908311
3084	13917547	45	18.933177552233
3084	14377727	46	18.222166905194
3084	14840701	47	17.319414880333
3084	15305553	48	18.507946782677
3084	15770493	49	15.978041876833
3084	16240137	50	14.034898206285
3084	16702299	51	12.794714602918
3084	17168571	52	12.291185738911
3084	17628744	53	12.665454633302
3084	18094014	54	13.40774580238
3084	18554095	55	14.55856112604
3084	19020016	56	16.108204991561
3084	19480113	57	17.978623552541
3084	19941965	58	18.877663683966
3084	20402134	59	18.999875641265
3084	20864395	60	18.920244308864
3083	3623773	22	516.75
3083	3950365	23	516.75
3083	4303567	24	516.75
3083	4671155	25	516.75
3083	5050450	26	516.75
3083	5438739	27	516.75
3083	5842603	28	516.75
3083	6273407	29	516.75
3083	6723708	30	516.75
3083	7175381	31	516.75
3083	7636218	32	516.75
3083	8101289	33	516.75
3083	8758472	34	516.75
3083	9227617	35	516.75
3083	9730856	36	516.75
3083	10200300	37	516.75
3083	10669049	38	516.75
3083	11137038	39	516.75
3083	11602303	40	516.75
3083	12069043	41	516.75
3083	12530705	42	516.75
3083	12995300	43	516.75
3083	13456288	44	516.75
3083	13917547	45	516.75
3083	14377727	46	516.75
3083	14840701	47	516.75
3083	15305553	48	520.05
3083	15770493	49	520.05
3083	16240137	50	520.05
3083	16702299	51	520.05
3083	17168571	52	520.05
3083	17628744	53	520.05
3083	18094014	54	520.05
3083	18554095	55	520.05
3083	19020016	56	520.05
3083	19480113	57	520.05
3083	19941965	58	520.05
3083	20402134	59	520.05
3083	20864395	60	520.05
3082	3623773	22	1022.4
3082	3950365	23	1022.4
3082	4303567	24	1021.0966894445
3082	4671155	25	1017.7328103203
3082	5050450	26	1012.4175982897
3082	5438739	27	1004.9431514441
3082	5842603	28	995.38430033949
3082	6273407	29	983.78897312522
3082	6723708	30	970.38567480554
3082	7175381	31	955.03843983275
3082	7636218	32	937.84125541317
3082	8101289	33	919.04249657506
3082	8758472	34	900.11670773555
3082	9227617	35	881.17171951051
3082	9730856	36	862.2368200923
3082	10200300	37	843.30289684748
3082	10669049	38	824.35417598083
3082	11137038	39	805.43517225514
3082	11602303	40	786.49256729512
3082	12069043	41	767.57215680842
3082	12530705	42	748.6238684436
3082	12995300	43	729.70394933196
3082	13456288	44	710.76944540875
3082	13917547	45	691.83111927919
3082	14377727	46	672.91261517796
3082	14840701	47	654.14646830355
3082	15305553	48	636.71877078008
3082	15770493	49	618.49323816255
3082	16240137	50	601.42580650646
3082	16702299	51	586.59506898081
3082	17168571	52	573.34626218837
3082	17628744	53	560.87223917285
3082	18094014	54	548.39678778401
3082	18554095	55	535.41710424243
3082	19020016	56	521.44120598749
3082	19480113	57	506.07942339226
3082	19941965	58	488.88069209615
3082	20402134	59	470.14473782867
3082	20864395	60	451.21284597073
