version 2
run WithoutChSw-WSA-TrAD-0-20180208-16:42:24-23641
attr configname WithoutChSw-WSA-TrAD
attr datetime 20180208-16:42:24
attr experiment WithoutChSw-WSA-TrAD
attr inifile omnetpp.ini
attr iterationvars $0=0.1s
attr iterationvarsf 0.1s-
attr measurement $0=0.1s
attr network Scenario2
attr processid 23641
attr repetition 0
attr replication #0
attr resultdir results
attr runnumber 0
attr seedset 0
param **.coreDebug false
param **.debug false
param *.**.nic.mac1609_4.bitrate 6Mbps
param *.**.nic.mac1609_4.txPower 20mW
param *.**.nic.mac1609_4.useServiceChannel false
param *.**.nic.phy80211p.analogueModels "xmldoc(\"config.xml\")"
param *.**.nic.phy80211p.antenna "xmldoc(\"antenna.xml\", \"/root/Antenna[@id='monopole']\")"
param *.**.nic.phy80211p.collectCollisionStatistics true
param *.**.nic.phy80211p.decider "xmldoc(\"config.xml\")"
param *.**.nic.phy80211p.sensitivity -89dBm
param *.**.nic.phy80211p.thermalNoise -110dBm
param *.**.nic.phy80211p.usePropagationDelay true
param *.**.nic.phy80211p.useThermalNoise true
param *.annotations.draw true
param *.connectionManager.drawMaxIntfDist false
param *.connectionManager.maxInterfDist 2600m
param *.connectionManager.sendDirect true
param *.manager.autoShutdown true
param *.manager.host "\"localhost\""
param *.manager.launchConfig "xmldoc(\"mycross.launchd.xml\")"
param *.manager.port 9999
param *.manager.updateInterval 1s
param *.node[*].appl.TrAD true
param *.node[*].appl.TrAD_Neig 25
param *.node[*].appl.TrAD_R 366
param *.node[*].appl.TrAD_alpha 10
param *.node[*].appl.TrAD_ti 0.005
param *.node[*].appl.beaconInterval 1s
param *.node[*].appl.dataOnSch false
param *.node[*].appl.headerLength "80 bit"
param *.node[*].appl.sendBeacons true
param *.node[*].appl.sendWSA true
param *.node[*].applType "\"myWaveAppLayer\""
param *.node[*].veinsmobility.x 0
param *.node[*].veinsmobility.y 0
param *.node[*].veinsmobility.z 1.895
param *.node[*].veinsmobilityType.debug true
param *.node[20].appl.Accident_start 30
param *.node[40].veinsmobility.accidentCount 1
param *.node[40].veinsmobility.accidentDuration 40s
param *.node[40].veinsmobility.accidentStart 30s
param *.obstacles.debug false
param *.playgroundSizeX 2500m
param *.playgroundSizeY 2500m
param *.playgroundSizeZ 50m
param *.rsu[*].appl.beaconInterval 0.1s
param *.rsu[*].appl.beaconUserPriority 7
param *.rsu[*].appl.dataOnSch false
param *.rsu[*].appl.dataUserPriority 5
param *.rsu[*].appl.headerLength "80 bit"
param *.rsu[*].appl.sendBeacons false
param *.rsu[*].applType "\"TraCIDemoRSU11p\""
param *.rsu[0].mobility.x 500
param *.rsu[0].mobility.y 500
param *.rsu[0].mobility.z 3

scalar Scenario2.node[18].appl 	generatedWSMs 	1
scalar Scenario2.node[18].appl 	receivedWSMs 	7
scalar Scenario2.node[18].appl 	generatedBSMs 	330
scalar Scenario2.node[18].appl 	receivedBSMs 	22640
scalar Scenario2.node[18].appl 	generatedWSAs 	0
scalar Scenario2.node[18].appl 	receivedWSAs 	0
scalar Scenario2.node[18].appl 	delayWSM 	0.000565343035
scalar Scenario2.node[18].appl 	Dist_Propa 	492.83302315433
scalar Scenario2.node[18].nic.phy80211p 	busyTime 	0.076470303030314
scalar Scenario2.node[18].nic.phy80211p 	ncollisions 	914
scalar Scenario2.node[18].nic.mac1609_4 	ReceivedUnicastPackets 	0
scalar Scenario2.node[18].nic.mac1609_4 	ReceivedBroadcasts 	22647
scalar Scenario2.node[18].nic.mac1609_4 	SentPackets 	331
scalar Scenario2.node[18].nic.mac1609_4 	SNIRLostPackets 	1593
scalar Scenario2.node[18].nic.mac1609_4 	RXTXLostPackets 	9
scalar Scenario2.node[18].nic.mac1609_4 	TotalLostPackets 	1602
scalar Scenario2.node[18].nic.mac1609_4 	DroppedPacketsInMac 	0
scalar Scenario2.node[18].nic.mac1609_4 	TooLittleTime 	0
scalar Scenario2.node[18].nic.mac1609_4 	TimesIntoBackoff 	331
scalar Scenario2.node[18].nic.mac1609_4 	SlotsBackoff 	495
scalar Scenario2.node[18].nic.mac1609_4 	NumInternalContention 	0
scalar Scenario2.node[18].nic.mac1609_4 	totalBusyTime 	2.486379
scalar Scenario2.node[18].veinsmobility 	startTime 	1
scalar Scenario2.node[18].veinsmobility 	totalTime 	32
scalar Scenario2.node[18].veinsmobility 	stopTime 	34
scalar Scenario2.node[18].veinsmobility 	minSpeed 	2.6377290236039
scalar Scenario2.node[18].veinsmobility 	maxSpeed 	18.998816868074
scalar Scenario2.node[18].veinsmobility 	totalDistance 	522.11524646103
scalar Scenario2.node[18].veinsmobility 	totalCO2Emission 	121.58310432878
scalar Scenario2.node[72].appl 	generatedWSMs 	0
scalar Scenario2.node[72].appl 	receivedWSMs 	0
scalar Scenario2.node[72].appl 	generatedBSMs 	320
scalar Scenario2.node[72].appl 	receivedBSMs 	21361
scalar Scenario2.node[72].appl 	generatedWSAs 	0
scalar Scenario2.node[72].appl 	receivedWSAs 	0
scalar Scenario2.node[72].appl 	delayWSM 	-1
scalar Scenario2.node[72].appl 	Dist_Propa 	-1
scalar Scenario2.node[72].nic.phy80211p 	busyTime 	0.074327500000016
scalar Scenario2.node[72].nic.phy80211p 	ncollisions 	853
scalar Scenario2.node[72].nic.mac1609_4 	ReceivedUnicastPackets 	0
scalar Scenario2.node[72].nic.mac1609_4 	ReceivedBroadcasts 	21361
scalar Scenario2.node[72].nic.mac1609_4 	SentPackets 	320
scalar Scenario2.node[72].nic.mac1609_4 	SNIRLostPackets 	1509
scalar Scenario2.node[72].nic.mac1609_4 	RXTXLostPackets 	0
scalar Scenario2.node[72].nic.mac1609_4 	TotalLostPackets 	1509
scalar Scenario2.node[72].nic.mac1609_4 	DroppedPacketsInMac 	0
scalar Scenario2.node[72].nic.mac1609_4 	TooLittleTime 	0
scalar Scenario2.node[72].nic.mac1609_4 	TimesIntoBackoff 	320
scalar Scenario2.node[72].nic.mac1609_4 	SlotsBackoff 	498
scalar Scenario2.node[72].nic.mac1609_4 	NumInternalContention 	0
scalar Scenario2.node[72].nic.mac1609_4 	totalBusyTime 	2.343856
scalar Scenario2.node[72].veinsmobility 	startTime 	3
scalar Scenario2.node[72].veinsmobility 	totalTime 	31
scalar Scenario2.node[72].veinsmobility 	stopTime 	35
scalar Scenario2.node[72].veinsmobility 	minSpeed 	4.160416336859
scalar Scenario2.node[72].veinsmobility 	maxSpeed 	18.998247401568
scalar Scenario2.node[72].veinsmobility 	totalDistance 	514.99453362875
scalar Scenario2.node[72].veinsmobility 	totalCO2Emission 	118.9178712817
scalar Scenario2.node[19].appl 	generatedWSMs 	1
scalar Scenario2.node[19].appl 	receivedWSMs 	7
scalar Scenario2.node[19].appl 	generatedBSMs 	350
scalar Scenario2.node[19].appl 	receivedBSMs 	24918
scalar Scenario2.node[19].appl 	generatedWSAs 	0
scalar Scenario2.node[19].appl 	receivedWSAs 	0
scalar Scenario2.node[19].appl 	delayWSM 	0.00056526722
scalar Scenario2.node[19].appl 	Dist_Propa 	515.39059150459
scalar Scenario2.node[19].nic.phy80211p 	busyTime 	0.079245257142859
scalar Scenario2.node[19].nic.phy80211p 	ncollisions 	973
scalar Scenario2.node[19].nic.mac1609_4 	ReceivedUnicastPackets 	0
scalar Scenario2.node[19].nic.mac1609_4 	ReceivedBroadcasts 	24925
scalar Scenario2.node[19].nic.mac1609_4 	SentPackets 	351
scalar Scenario2.node[19].nic.mac1609_4 	SNIRLostPackets 	1717
scalar Scenario2.node[19].nic.mac1609_4 	RXTXLostPackets 	9
scalar Scenario2.node[19].nic.mac1609_4 	TotalLostPackets 	1726
scalar Scenario2.node[19].nic.mac1609_4 	DroppedPacketsInMac 	0
scalar Scenario2.node[19].nic.mac1609_4 	TooLittleTime 	0
scalar Scenario2.node[19].nic.mac1609_4 	TimesIntoBackoff 	351
scalar Scenario2.node[19].nic.mac1609_4 	SlotsBackoff 	502
scalar Scenario2.node[19].nic.mac1609_4 	NumInternalContention 	0
scalar Scenario2.node[19].nic.mac1609_4 	totalBusyTime 	2.73152715163
scalar Scenario2.node[19].veinsmobility 	startTime 	1
scalar Scenario2.node[19].veinsmobility 	totalTime 	34
scalar Scenario2.node[19].veinsmobility 	stopTime 	36
scalar Scenario2.node[19].veinsmobility 	minSpeed 	2.7469869994252
scalar Scenario2.node[19].veinsmobility 	maxSpeed 	18.980967045685
scalar Scenario2.node[19].veinsmobility 	totalDistance 	552.79239116376
scalar Scenario2.node[19].veinsmobility 	totalCO2Emission 	125.79905284345
scalar Scenario2.node[81].appl 	generatedWSMs 	1
scalar Scenario2.node[81].appl 	receivedWSMs 	7
scalar Scenario2.node[81].appl 	generatedBSMs 	320
scalar Scenario2.node[81].appl 	receivedBSMs 	23790
scalar Scenario2.node[81].appl 	generatedWSAs 	0
scalar Scenario2.node[81].appl 	receivedWSAs 	0
scalar Scenario2.node[81].appl 	delayWSM 	0.000565247685
scalar Scenario2.node[81].appl 	Dist_Propa 	521.18504565226
scalar Scenario2.node[81].nic.phy80211p 	busyTime 	0.082493000000007
scalar Scenario2.node[81].nic.phy80211p 	ncollisions 	889
scalar Scenario2.node[81].nic.mac1609_4 	ReceivedUnicastPackets 	0
scalar Scenario2.node[81].nic.mac1609_4 	ReceivedBroadcasts 	23797
scalar Scenario2.node[81].nic.mac1609_4 	SentPackets 	321
scalar Scenario2.node[81].nic.mac1609_4 	SNIRLostPackets 	1551
scalar Scenario2.node[81].nic.mac1609_4 	RXTXLostPackets 	4
scalar Scenario2.node[81].nic.mac1609_4 	TotalLostPackets 	1555
scalar Scenario2.node[81].nic.mac1609_4 	DroppedPacketsInMac 	0
scalar Scenario2.node[81].nic.mac1609_4 	TooLittleTime 	0
scalar Scenario2.node[81].nic.mac1609_4 	TimesIntoBackoff 	322
scalar Scenario2.node[81].nic.mac1609_4 	SlotsBackoff 	504
scalar Scenario2.node[81].nic.mac1609_4 	NumInternalContention 	0
scalar Scenario2.node[81].nic.mac1609_4 	totalBusyTime 	2.602516000842
scalar Scenario2.node[81].veinsmobility 	startTime 	4
scalar Scenario2.node[81].veinsmobility 	totalTime 	31
scalar Scenario2.node[81].veinsmobility 	stopTime 	36
scalar Scenario2.node[81].veinsmobility 	minSpeed 	2.9169091988617
scalar Scenario2.node[81].veinsmobility 	maxSpeed 	18.976269957249
scalar Scenario2.node[81].veinsmobility 	totalDistance 	505.13364217523
scalar Scenario2.node[81].veinsmobility 	totalCO2Emission 	119.23000791163
scalar Scenario2.node[33].appl 	generatedWSMs 	1
scalar Scenario2.node[33].appl 	receivedWSMs 	7
scalar Scenario2.node[33].appl 	generatedBSMs 	360
scalar Scenario2.node[33].appl 	receivedBSMs 	27277
scalar Scenario2.node[33].appl 	generatedWSAs 	0
scalar Scenario2.node[33].appl 	receivedWSAs 	0
scalar Scenario2.node[33].appl 	delayWSM 	0.000565185902
scalar Scenario2.node[33].appl 	Dist_Propa 	542.04247105799
scalar Scenario2.node[33].nic.phy80211p 	busyTime 	0.084189333333327
scalar Scenario2.node[33].nic.phy80211p 	ncollisions 	1020
scalar Scenario2.node[33].nic.mac1609_4 	ReceivedUnicastPackets 	0
scalar Scenario2.node[33].nic.mac1609_4 	ReceivedBroadcasts 	27284
scalar Scenario2.node[33].nic.mac1609_4 	SentPackets 	361
scalar Scenario2.node[33].nic.mac1609_4 	SNIRLostPackets 	1824
scalar Scenario2.node[33].nic.mac1609_4 	RXTXLostPackets 	6
scalar Scenario2.node[33].nic.mac1609_4 	TotalLostPackets 	1830
scalar Scenario2.node[33].nic.mac1609_4 	DroppedPacketsInMac 	0
scalar Scenario2.node[33].nic.mac1609_4 	TooLittleTime 	0
scalar Scenario2.node[33].nic.mac1609_4 	TimesIntoBackoff 	362
scalar Scenario2.node[33].nic.mac1609_4 	SlotsBackoff 	546
scalar Scenario2.node[33].nic.mac1609_4 	NumInternalContention 	0
scalar Scenario2.node[33].nic.mac1609_4 	totalBusyTime 	2.98298800039
scalar Scenario2.node[33].veinsmobility 	startTime 	1
scalar Scenario2.node[33].veinsmobility 	totalTime 	35
scalar Scenario2.node[33].veinsmobility 	stopTime 	37
scalar Scenario2.node[33].veinsmobility 	minSpeed 	0.7030855698499
scalar Scenario2.node[33].veinsmobility 	maxSpeed 	18.994416443501
scalar Scenario2.node[33].veinsmobility 	totalDistance 	543.99849859273
scalar Scenario2.node[33].veinsmobility 	totalCO2Emission 	128.19238520245
scalar Scenario2.node[24].appl 	generatedWSMs 	1
scalar Scenario2.node[24].appl 	receivedWSMs 	6
scalar Scenario2.node[24].appl 	generatedBSMs 	360
scalar Scenario2.node[24].appl 	receivedBSMs 	27329
scalar Scenario2.node[24].appl 	generatedWSAs 	0
scalar Scenario2.node[24].appl 	receivedWSAs 	0
scalar Scenario2.node[24].appl 	delayWSM 	0.000565172264
scalar Scenario2.node[24].appl 	Dist_Propa 	543.43825235875
scalar Scenario2.node[24].nic.phy80211p 	busyTime 	0.084401333333327
scalar Scenario2.node[24].nic.phy80211p 	ncollisions 	1034
scalar Scenario2.node[24].nic.mac1609_4 	ReceivedUnicastPackets 	0
scalar Scenario2.node[24].nic.mac1609_4 	ReceivedBroadcasts 	27335
scalar Scenario2.node[24].nic.mac1609_4 	SentPackets 	361
scalar Scenario2.node[24].nic.mac1609_4 	SNIRLostPackets 	1839
scalar Scenario2.node[24].nic.mac1609_4 	RXTXLostPackets 	0
scalar Scenario2.node[24].nic.mac1609_4 	TotalLostPackets 	1839
scalar Scenario2.node[24].nic.mac1609_4 	DroppedPacketsInMac 	0
scalar Scenario2.node[24].nic.mac1609_4 	TooLittleTime 	0
scalar Scenario2.node[24].nic.mac1609_4 	TimesIntoBackoff 	361
scalar Scenario2.node[24].nic.mac1609_4 	SlotsBackoff 	544
scalar Scenario2.node[24].nic.mac1609_4 	NumInternalContention 	0
scalar Scenario2.node[24].nic.mac1609_4 	totalBusyTime 	2.989689042664
scalar Scenario2.node[24].veinsmobility 	startTime 	1
scalar Scenario2.node[24].veinsmobility 	totalTime 	35
scalar Scenario2.node[24].veinsmobility 	stopTime 	37
scalar Scenario2.node[24].veinsmobility 	minSpeed 	2.8351305318164
scalar Scenario2.node[24].veinsmobility 	maxSpeed 	18.986858689971
scalar Scenario2.node[24].veinsmobility 	totalDistance 	519.79892566372
scalar Scenario2.node[24].veinsmobility 	totalCO2Emission 	125.60350843403
scalar Scenario2.node[38].appl 	generatedWSMs 	1
scalar Scenario2.node[38].appl 	receivedWSMs 	6
scalar Scenario2.node[38].appl 	generatedBSMs 	370
scalar Scenario2.node[38].appl 	receivedBSMs 	29550
scalar Scenario2.node[38].appl 	generatedWSAs 	0
scalar Scenario2.node[38].appl 	receivedWSAs 	0
scalar Scenario2.node[38].appl 	delayWSM 	0.000565110386
scalar Scenario2.node[38].appl 	Dist_Propa 	564.41747452453
scalar Scenario2.node[38].nic.phy80211p 	busyTime 	0.089019243243229
scalar Scenario2.node[38].nic.phy80211p 	ncollisions 	1074
scalar Scenario2.node[38].nic.mac1609_4 	ReceivedUnicastPackets 	0
scalar Scenario2.node[38].nic.mac1609_4 	ReceivedBroadcasts 	29556
scalar Scenario2.node[38].nic.mac1609_4 	SentPackets 	371
scalar Scenario2.node[38].nic.mac1609_4 	SNIRLostPackets 	2070
scalar Scenario2.node[38].nic.mac1609_4 	RXTXLostPackets 	3
scalar Scenario2.node[38].nic.mac1609_4 	TotalLostPackets 	2073
scalar Scenario2.node[38].nic.mac1609_4 	DroppedPacketsInMac 	0
scalar Scenario2.node[38].nic.mac1609_4 	TooLittleTime 	0
scalar Scenario2.node[38].nic.mac1609_4 	TimesIntoBackoff 	372
scalar Scenario2.node[38].nic.mac1609_4 	SlotsBackoff 	562
scalar Scenario2.node[38].nic.mac1609_4 	NumInternalContention 	0
scalar Scenario2.node[38].nic.mac1609_4 	totalBusyTime 	3.22588315092
scalar Scenario2.node[38].veinsmobility 	startTime 	1
scalar Scenario2.node[38].veinsmobility 	totalTime 	36
scalar Scenario2.node[38].veinsmobility 	stopTime 	38
scalar Scenario2.node[38].veinsmobility 	minSpeed 	3.8436146157379
scalar Scenario2.node[38].veinsmobility 	maxSpeed 	18.956129539851
scalar Scenario2.node[38].veinsmobility 	totalDistance 	572.52570590264
scalar Scenario2.node[38].veinsmobility 	totalCO2Emission 	127.13910885386
scalar Scenario2.node[77].appl 	generatedWSMs 	0
scalar Scenario2.node[77].appl 	receivedWSMs 	0
scalar Scenario2.node[77].appl 	generatedBSMs 	350
scalar Scenario2.node[77].appl 	receivedBSMs 	26710
scalar Scenario2.node[77].appl 	generatedWSAs 	0
scalar Scenario2.node[77].appl 	receivedWSAs 	0
scalar Scenario2.node[77].appl 	delayWSM 	-1
scalar Scenario2.node[77].appl 	Dist_Propa 	-1
scalar Scenario2.node[77].nic.phy80211p 	busyTime 	0.085567542857138
scalar Scenario2.node[77].nic.phy80211p 	ncollisions 	973
scalar Scenario2.node[77].nic.mac1609_4 	ReceivedUnicastPackets 	0
scalar Scenario2.node[77].nic.mac1609_4 	ReceivedBroadcasts 	26710
scalar Scenario2.node[77].nic.mac1609_4 	SentPackets 	350
scalar Scenario2.node[77].nic.mac1609_4 	SNIRLostPackets 	2072
scalar Scenario2.node[77].nic.mac1609_4 	RXTXLostPackets 	0
scalar Scenario2.node[77].nic.mac1609_4 	TotalLostPackets 	2072
scalar Scenario2.node[77].nic.mac1609_4 	DroppedPacketsInMac 	0
scalar Scenario2.node[77].nic.mac1609_4 	TooLittleTime 	0
scalar Scenario2.node[77].nic.mac1609_4 	TimesIntoBackoff 	488
scalar Scenario2.node[77].nic.mac1609_4 	SlotsBackoff 	733
scalar Scenario2.node[77].nic.mac1609_4 	NumInternalContention 	0
scalar Scenario2.node[77].nic.mac1609_4 	totalBusyTime 	2.916294583892
scalar Scenario2.node[77].veinsmobility 	startTime 	3
scalar Scenario2.node[77].veinsmobility 	totalTime 	34
scalar Scenario2.node[77].veinsmobility 	stopTime 	38
scalar Scenario2.node[77].veinsmobility 	minSpeed 	2.469303570089
scalar Scenario2.node[77].veinsmobility 	maxSpeed 	18.989598316788
scalar Scenario2.node[77].veinsmobility 	totalDistance 	534.6176752236
scalar Scenario2.node[77].veinsmobility 	totalCO2Emission 	125.29924590028
scalar Scenario2.node[78].appl 	generatedWSMs 	1
scalar Scenario2.node[78].appl 	receivedWSMs 	7
scalar Scenario2.node[78].appl 	generatedBSMs 	350
scalar Scenario2.node[78].appl 	receivedBSMs 	28505
scalar Scenario2.node[78].appl 	generatedWSAs 	0
scalar Scenario2.node[78].appl 	receivedWSAs 	0
scalar Scenario2.node[78].appl 	delayWSM 	0.000565097151
scalar Scenario2.node[78].appl 	Dist_Propa 	244.48526583796
scalar Scenario2.node[78].nic.phy80211p 	busyTime 	0.090421485714275
scalar Scenario2.node[78].nic.phy80211p 	ncollisions 	1025
scalar Scenario2.node[78].nic.mac1609_4 	ReceivedUnicastPackets 	0
scalar Scenario2.node[78].nic.mac1609_4 	ReceivedBroadcasts 	28512
scalar Scenario2.node[78].nic.mac1609_4 	SentPackets 	351
scalar Scenario2.node[78].nic.mac1609_4 	SNIRLostPackets 	1874
scalar Scenario2.node[78].nic.mac1609_4 	RXTXLostPackets 	7
scalar Scenario2.node[78].nic.mac1609_4 	TotalLostPackets 	1881
scalar Scenario2.node[78].nic.mac1609_4 	DroppedPacketsInMac 	0
scalar Scenario2.node[78].nic.mac1609_4 	TooLittleTime 	0
scalar Scenario2.node[78].nic.mac1609_4 	TimesIntoBackoff 	352
scalar Scenario2.node[78].nic.mac1609_4 	SlotsBackoff 	561
scalar Scenario2.node[78].nic.mac1609_4 	NumInternalContention 	0
scalar Scenario2.node[78].nic.mac1609_4 	totalBusyTime 	3.110111150099
scalar Scenario2.node[78].veinsmobility 	startTime 	3
scalar Scenario2.node[78].veinsmobility 	totalTime 	34
scalar Scenario2.node[78].veinsmobility 	stopTime 	38
scalar Scenario2.node[78].veinsmobility 	minSpeed 	1.6589710813337
scalar Scenario2.node[78].veinsmobility 	maxSpeed 	18.915644339598
scalar Scenario2.node[78].veinsmobility 	totalDistance 	513.35441316521
scalar Scenario2.node[78].veinsmobility 	totalCO2Emission 	122.34261446111
scalar Scenario2.node[23].appl 	generatedWSMs 	0
scalar Scenario2.node[23].appl 	receivedWSMs 	0
scalar Scenario2.node[23].appl 	generatedBSMs 	380
scalar Scenario2.node[23].appl 	receivedBSMs 	29608
scalar Scenario2.node[23].appl 	generatedWSAs 	0
scalar Scenario2.node[23].appl 	receivedWSAs 	0
scalar Scenario2.node[23].appl 	delayWSM 	-1
scalar Scenario2.node[23].appl 	Dist_Propa 	-1
scalar Scenario2.node[23].nic.phy80211p 	busyTime 	0.087100631578933
scalar Scenario2.node[23].nic.phy80211p 	ncollisions 	1082
scalar Scenario2.node[23].nic.mac1609_4 	ReceivedUnicastPackets 	0
scalar Scenario2.node[23].nic.mac1609_4 	ReceivedBroadcasts 	29608
scalar Scenario2.node[23].nic.mac1609_4 	SentPackets 	380
scalar Scenario2.node[23].nic.mac1609_4 	SNIRLostPackets 	2168
scalar Scenario2.node[23].nic.mac1609_4 	RXTXLostPackets 	184
scalar Scenario2.node[23].nic.mac1609_4 	TotalLostPackets 	2352
scalar Scenario2.node[23].nic.mac1609_4 	DroppedPacketsInMac 	0
scalar Scenario2.node[23].nic.mac1609_4 	TooLittleTime 	0
scalar Scenario2.node[23].nic.mac1609_4 	TimesIntoBackoff 	380
scalar Scenario2.node[23].nic.mac1609_4 	SlotsBackoff 	580
scalar Scenario2.node[23].nic.mac1609_4 	NumInternalContention 	0
scalar Scenario2.node[23].nic.mac1609_4 	totalBusyTime 	3.23398499849
scalar Scenario2.node[23].veinsmobility 	startTime 	1
scalar Scenario2.node[23].veinsmobility 	totalTime 	37
scalar Scenario2.node[23].veinsmobility 	stopTime 	39
scalar Scenario2.node[23].veinsmobility 	minSpeed 	3.9197721995389
scalar Scenario2.node[23].veinsmobility 	maxSpeed 	18.958762100481
scalar Scenario2.node[23].veinsmobility 	totalDistance 	551.2990211723
scalar Scenario2.node[23].veinsmobility 	totalCO2Emission 	129.27981560609
scalar Scenario2.node[99].appl 	generatedWSMs 	1
scalar Scenario2.node[99].appl 	receivedWSMs 	6
scalar Scenario2.node[99].appl 	generatedBSMs 	320
scalar Scenario2.node[99].appl 	receivedBSMs 	27824
scalar Scenario2.node[99].appl 	generatedWSAs 	0
scalar Scenario2.node[99].appl 	receivedWSAs 	0
scalar Scenario2.node[99].appl 	delayWSM 	0.000565021729
scalar Scenario2.node[99].appl 	Dist_Propa 	588.14143980401
scalar Scenario2.node[99].nic.phy80211p 	busyTime 	0.096789999999991
scalar Scenario2.node[99].nic.phy80211p 	ncollisions 	950
scalar Scenario2.node[99].nic.mac1609_4 	ReceivedUnicastPackets 	0
scalar Scenario2.node[99].nic.mac1609_4 	ReceivedBroadcasts 	27830
scalar Scenario2.node[99].nic.mac1609_4 	SentPackets 	321
scalar Scenario2.node[99].nic.mac1609_4 	SNIRLostPackets 	1890
scalar Scenario2.node[99].nic.mac1609_4 	RXTXLostPackets 	12
scalar Scenario2.node[99].nic.mac1609_4 	TotalLostPackets 	1902
scalar Scenario2.node[99].nic.mac1609_4 	DroppedPacketsInMac 	0
scalar Scenario2.node[99].nic.mac1609_4 	TooLittleTime 	0
scalar Scenario2.node[99].nic.mac1609_4 	TimesIntoBackoff 	322
scalar Scenario2.node[99].nic.mac1609_4 	SlotsBackoff 	503
scalar Scenario2.node[99].nic.mac1609_4 	NumInternalContention 	0
scalar Scenario2.node[99].nic.mac1609_4 	totalBusyTime 	3.028233152056
scalar Scenario2.node[99].veinsmobility 	startTime 	7
scalar Scenario2.node[99].veinsmobility 	totalTime 	31
scalar Scenario2.node[99].veinsmobility 	stopTime 	39
scalar Scenario2.node[99].veinsmobility 	minSpeed 	3.4495017279335
scalar Scenario2.node[99].veinsmobility 	maxSpeed 	18.97233216234
scalar Scenario2.node[99].veinsmobility 	totalDistance 	505.89978518668
scalar Scenario2.node[99].veinsmobility 	totalCO2Emission 	118.34030555927
scalar Scenario2.node[43].appl 	generatedWSMs 	1
scalar Scenario2.node[43].appl 	receivedWSMs 	6
scalar Scenario2.node[43].appl 	generatedBSMs 	390
scalar Scenario2.node[43].appl 	receivedBSMs 	33114
scalar Scenario2.node[43].appl 	generatedWSAs 	0
scalar Scenario2.node[43].appl 	receivedWSAs 	0
scalar Scenario2.node[43].appl 	delayWSM 	0.000564965754
scalar Scenario2.node[43].appl 	Dist_Propa 	606.70141593829
scalar Scenario2.node[43].nic.phy80211p 	busyTime 	0.094786461538437
scalar Scenario2.node[43].nic.phy80211p 	ncollisions 	1150
scalar Scenario2.node[43].nic.mac1609_4 	ReceivedUnicastPackets 	0
scalar Scenario2.node[43].nic.mac1609_4 	ReceivedBroadcasts 	33120
scalar Scenario2.node[43].nic.mac1609_4 	SentPackets 	391
scalar Scenario2.node[43].nic.mac1609_4 	SNIRLostPackets 	2354
scalar Scenario2.node[43].nic.mac1609_4 	RXTXLostPackets 	18
scalar Scenario2.node[43].nic.mac1609_4 	TotalLostPackets 	2372
scalar Scenario2.node[43].nic.mac1609_4 	DroppedPacketsInMac 	0
scalar Scenario2.node[43].nic.mac1609_4 	TooLittleTime 	0
scalar Scenario2.node[43].nic.mac1609_4 	TimesIntoBackoff 	392
scalar Scenario2.node[43].nic.mac1609_4 	SlotsBackoff 	577
scalar Scenario2.node[43].nic.mac1609_4 	NumInternalContention 	0
scalar Scenario2.node[43].nic.mac1609_4 	totalBusyTime 	3.606543210715
scalar Scenario2.node[43].veinsmobility 	startTime 	1
scalar Scenario2.node[43].veinsmobility 	totalTime 	38
scalar Scenario2.node[43].veinsmobility 	stopTime 	40
scalar Scenario2.node[43].veinsmobility 	minSpeed 	0.93985029414634
scalar Scenario2.node[43].veinsmobility 	maxSpeed 	18.998235099297
scalar Scenario2.node[43].veinsmobility 	totalDistance 	533.08445200913
scalar Scenario2.node[43].veinsmobility 	totalCO2Emission 	131.64580719256
scalar Scenario2.node[97].appl 	generatedWSMs 	1
scalar Scenario2.node[97].appl 	receivedWSMs 	4
scalar Scenario2.node[97].appl 	generatedBSMs 	340
scalar Scenario2.node[97].appl 	receivedBSMs 	32026
scalar Scenario2.node[97].appl 	generatedWSAs 	0
scalar Scenario2.node[97].appl 	receivedWSAs 	0
scalar Scenario2.node[97].appl 	delayWSM 	0.010509864397
scalar Scenario2.node[97].appl 	Dist_Propa 	248.89857457173
scalar Scenario2.node[97].nic.phy80211p 	busyTime 	0.10671411764703
scalar Scenario2.node[97].nic.phy80211p 	ncollisions 	1308
scalar Scenario2.node[97].nic.mac1609_4 	ReceivedUnicastPackets 	0
scalar Scenario2.node[97].nic.mac1609_4 	ReceivedBroadcasts 	32030
scalar Scenario2.node[97].nic.mac1609_4 	SentPackets 	341
scalar Scenario2.node[97].nic.mac1609_4 	SNIRLostPackets 	2765
scalar Scenario2.node[97].nic.mac1609_4 	RXTXLostPackets 	1
scalar Scenario2.node[97].nic.mac1609_4 	TotalLostPackets 	2766
scalar Scenario2.node[97].nic.mac1609_4 	DroppedPacketsInMac 	0
scalar Scenario2.node[97].nic.mac1609_4 	TooLittleTime 	0
scalar Scenario2.node[97].nic.mac1609_4 	TimesIntoBackoff 	341
scalar Scenario2.node[97].nic.mac1609_4 	SlotsBackoff 	543
scalar Scenario2.node[97].nic.mac1609_4 	NumInternalContention 	0
scalar Scenario2.node[97].nic.mac1609_4 	totalBusyTime 	3.505280246528
scalar Scenario2.node[97].veinsmobility 	startTime 	6
scalar Scenario2.node[97].veinsmobility 	totalTime 	33
scalar Scenario2.node[97].veinsmobility 	stopTime 	40
scalar Scenario2.node[97].veinsmobility 	minSpeed 	2.0811592944059
scalar Scenario2.node[97].veinsmobility 	maxSpeed 	18.985642932095
scalar Scenario2.node[97].veinsmobility 	totalDistance 	537.06051774556
scalar Scenario2.node[97].veinsmobility 	totalCO2Emission 	124.01651426989
scalar Scenario2.node[87].appl 	generatedWSMs 	1
scalar Scenario2.node[87].appl 	receivedWSMs 	6
scalar Scenario2.node[87].appl 	generatedBSMs 	360
scalar Scenario2.node[87].appl 	receivedBSMs 	31867
scalar Scenario2.node[87].appl 	generatedWSAs 	0
scalar Scenario2.node[87].appl 	receivedWSAs 	0
scalar Scenario2.node[87].appl 	delayWSM 	0.000564939731
scalar Scenario2.node[87].appl 	Dist_Propa 	615.42082122358
scalar Scenario2.node[87].nic.phy80211p 	busyTime 	0.0987982222222
scalar Scenario2.node[87].nic.phy80211p 	ncollisions 	1072
scalar Scenario2.node[87].nic.mac1609_4 	ReceivedUnicastPackets 	0
scalar Scenario2.node[87].nic.mac1609_4 	ReceivedBroadcasts 	31873
scalar Scenario2.node[87].nic.mac1609_4 	SentPackets 	361
scalar Scenario2.node[87].nic.mac1609_4 	SNIRLostPackets 	2253
scalar Scenario2.node[87].nic.mac1609_4 	RXTXLostPackets 	19
scalar Scenario2.node[87].nic.mac1609_4 	TotalLostPackets 	2272
scalar Scenario2.node[87].nic.mac1609_4 	DroppedPacketsInMac 	0
scalar Scenario2.node[87].nic.mac1609_4 	TooLittleTime 	0
scalar Scenario2.node[87].nic.mac1609_4 	TimesIntoBackoff 	362
scalar Scenario2.node[87].nic.mac1609_4 	SlotsBackoff 	529
scalar Scenario2.node[87].nic.mac1609_4 	NumInternalContention 	0
scalar Scenario2.node[87].nic.mac1609_4 	totalBusyTime 	3.46570187329
scalar Scenario2.node[87].veinsmobility 	startTime 	5
scalar Scenario2.node[87].veinsmobility 	totalTime 	35
scalar Scenario2.node[87].veinsmobility 	stopTime 	41
scalar Scenario2.node[87].veinsmobility 	minSpeed 	1.5977305046032
scalar Scenario2.node[87].veinsmobility 	maxSpeed 	18.996921987447
scalar Scenario2.node[87].veinsmobility 	totalDistance 	533.65184389026
scalar Scenario2.node[87].veinsmobility 	totalCO2Emission 	127.08622532585
scalar Scenario2.node[65].appl 	generatedWSMs 	1
scalar Scenario2.node[65].appl 	receivedWSMs 	7
scalar Scenario2.node[65].appl 	generatedBSMs 	390
scalar Scenario2.node[65].appl 	receivedBSMs 	34609
scalar Scenario2.node[65].appl 	generatedWSAs 	0
scalar Scenario2.node[65].appl 	receivedWSAs 	0
scalar Scenario2.node[65].appl 	delayWSM 	0.000564890929
scalar Scenario2.node[65].appl 	Dist_Propa 	625.04152605841
scalar Scenario2.node[65].nic.phy80211p 	busyTime 	0.099645743589713
scalar Scenario2.node[65].nic.phy80211p 	ncollisions 	1265
scalar Scenario2.node[65].nic.mac1609_4 	ReceivedUnicastPackets 	0
scalar Scenario2.node[65].nic.mac1609_4 	ReceivedBroadcasts 	34616
scalar Scenario2.node[65].nic.mac1609_4 	SentPackets 	391
scalar Scenario2.node[65].nic.mac1609_4 	SNIRLostPackets 	2681
scalar Scenario2.node[65].nic.mac1609_4 	RXTXLostPackets 	26
scalar Scenario2.node[65].nic.mac1609_4 	TotalLostPackets 	2707
scalar Scenario2.node[65].nic.mac1609_4 	DroppedPacketsInMac 	0
scalar Scenario2.node[65].nic.mac1609_4 	TooLittleTime 	0
scalar Scenario2.node[65].nic.mac1609_4 	TimesIntoBackoff 	392
scalar Scenario2.node[65].nic.mac1609_4 	SlotsBackoff 	636
scalar Scenario2.node[65].nic.mac1609_4 	NumInternalContention 	0
scalar Scenario2.node[65].nic.mac1609_4 	totalBusyTime 	3.774195662077
scalar Scenario2.node[65].veinsmobility 	startTime 	2
scalar Scenario2.node[65].veinsmobility 	totalTime 	38
scalar Scenario2.node[65].veinsmobility 	stopTime 	41
scalar Scenario2.node[65].veinsmobility 	minSpeed 	2.7004654792201
scalar Scenario2.node[65].veinsmobility 	maxSpeed 	18.952788990605
scalar Scenario2.node[65].veinsmobility 	totalDistance 	542.46622928497
scalar Scenario2.node[65].veinsmobility 	totalCO2Emission 	129.04066945565
scalar Scenario2.node[86].appl 	generatedWSMs 	1
scalar Scenario2.node[86].appl 	receivedWSMs 	4
scalar Scenario2.node[86].appl 	generatedBSMs 	360
scalar Scenario2.node[86].appl 	receivedBSMs 	34696
scalar Scenario2.node[86].appl 	generatedWSAs 	0
scalar Scenario2.node[86].appl 	receivedWSAs 	0
scalar Scenario2.node[86].appl 	delayWSM 	0.010509790874
scalar Scenario2.node[86].appl 	Dist_Propa 	271.02479860395
scalar Scenario2.node[86].nic.phy80211p 	busyTime 	0.10926955555552
scalar Scenario2.node[86].nic.phy80211p 	ncollisions 	1422
scalar Scenario2.node[86].nic.mac1609_4 	ReceivedUnicastPackets 	0
scalar Scenario2.node[86].nic.mac1609_4 	ReceivedBroadcasts 	34700
scalar Scenario2.node[86].nic.mac1609_4 	SentPackets 	361
scalar Scenario2.node[86].nic.mac1609_4 	SNIRLostPackets 	3017
scalar Scenario2.node[86].nic.mac1609_4 	RXTXLostPackets 	0
scalar Scenario2.node[86].nic.mac1609_4 	TotalLostPackets 	3017
scalar Scenario2.node[86].nic.mac1609_4 	DroppedPacketsInMac 	0
scalar Scenario2.node[86].nic.mac1609_4 	TooLittleTime 	0
scalar Scenario2.node[86].nic.mac1609_4 	TimesIntoBackoff 	362
scalar Scenario2.node[86].nic.mac1609_4 	SlotsBackoff 	512
scalar Scenario2.node[86].nic.mac1609_4 	NumInternalContention 	0
scalar Scenario2.node[86].nic.mac1609_4 	totalBusyTime 	3.796237455519
scalar Scenario2.node[86].veinsmobility 	startTime 	5
scalar Scenario2.node[86].veinsmobility 	totalTime 	35
scalar Scenario2.node[86].veinsmobility 	stopTime 	41
scalar Scenario2.node[86].veinsmobility 	minSpeed 	2.8531540664863
scalar Scenario2.node[86].veinsmobility 	maxSpeed 	18.998548358157
scalar Scenario2.node[86].veinsmobility 	totalDistance 	576.58382063838
scalar Scenario2.node[86].veinsmobility 	totalCO2Emission 	128.79870530879
scalar Scenario2.node[69].appl 	generatedWSMs 	1
scalar Scenario2.node[69].appl 	receivedWSMs 	6
scalar Scenario2.node[69].appl 	generatedBSMs 	400
scalar Scenario2.node[69].appl 	receivedBSMs 	35494
scalar Scenario2.node[69].appl 	generatedWSAs 	0
scalar Scenario2.node[69].appl 	receivedWSAs 	0
scalar Scenario2.node[69].appl 	delayWSM 	0.000564865034
scalar Scenario2.node[69].appl 	Dist_Propa 	635.23159504359
scalar Scenario2.node[69].nic.phy80211p 	busyTime 	0.099775199999968
scalar Scenario2.node[69].nic.phy80211p 	ncollisions 	1322
scalar Scenario2.node[69].nic.mac1609_4 	ReceivedUnicastPackets 	0
scalar Scenario2.node[69].nic.mac1609_4 	ReceivedBroadcasts 	35500
scalar Scenario2.node[69].nic.mac1609_4 	SentPackets 	401
scalar Scenario2.node[69].nic.mac1609_4 	SNIRLostPackets 	2784
scalar Scenario2.node[69].nic.mac1609_4 	RXTXLostPackets 	14
scalar Scenario2.node[69].nic.mac1609_4 	TotalLostPackets 	2798
scalar Scenario2.node[69].nic.mac1609_4 	DroppedPacketsInMac 	0
scalar Scenario2.node[69].nic.mac1609_4 	TooLittleTime 	0
scalar Scenario2.node[69].nic.mac1609_4 	TimesIntoBackoff 	402
scalar Scenario2.node[69].nic.mac1609_4 	SlotsBackoff 	617
scalar Scenario2.node[69].nic.mac1609_4 	NumInternalContention 	0
scalar Scenario2.node[69].nic.mac1609_4 	totalBusyTime 	3.873001353934
scalar Scenario2.node[69].veinsmobility 	startTime 	2
scalar Scenario2.node[69].veinsmobility 	totalTime 	39
scalar Scenario2.node[69].veinsmobility 	stopTime 	42
scalar Scenario2.node[69].veinsmobility 	minSpeed 	1.8372399861668
scalar Scenario2.node[69].veinsmobility 	maxSpeed 	18.994541057395
scalar Scenario2.node[69].veinsmobility 	totalDistance 	557.44137128233
scalar Scenario2.node[69].veinsmobility 	totalCO2Emission 	133.33762905362
scalar Scenario2.node[2].appl 	generatedWSMs 	1
scalar Scenario2.node[2].appl 	receivedWSMs 	7
scalar Scenario2.node[2].appl 	generatedBSMs 	420
scalar Scenario2.node[2].appl 	receivedBSMs 	37305
scalar Scenario2.node[2].appl 	generatedWSAs 	0
scalar Scenario2.node[2].appl 	receivedWSAs 	0
scalar Scenario2.node[2].appl 	delayWSM 	0.00056481693
scalar Scenario2.node[2].appl 	Dist_Propa 	645.91612644906
scalar Scenario2.node[2].nic.phy80211p 	busyTime 	0.099974857142841
scalar Scenario2.node[2].nic.phy80211p 	ncollisions 	1396
scalar Scenario2.node[2].nic.mac1609_4 	ReceivedUnicastPackets 	0
scalar Scenario2.node[2].nic.mac1609_4 	ReceivedBroadcasts 	37312
scalar Scenario2.node[2].nic.mac1609_4 	SentPackets 	421
scalar Scenario2.node[2].nic.mac1609_4 	SNIRLostPackets 	2948
scalar Scenario2.node[2].nic.mac1609_4 	RXTXLostPackets 	6
scalar Scenario2.node[2].nic.mac1609_4 	TotalLostPackets 	2954
scalar Scenario2.node[2].nic.mac1609_4 	DroppedPacketsInMac 	0
scalar Scenario2.node[2].nic.mac1609_4 	TooLittleTime 	0
scalar Scenario2.node[2].nic.mac1609_4 	TimesIntoBackoff 	567
scalar Scenario2.node[2].nic.mac1609_4 	SlotsBackoff 	870
scalar Scenario2.node[2].nic.mac1609_4 	NumInternalContention 	0
scalar Scenario2.node[2].nic.mac1609_4 	totalBusyTime 	4.071245297817
scalar Scenario2.node[2].veinsmobility 	startTime 	1
scalar Scenario2.node[2].veinsmobility 	totalTime 	41
scalar Scenario2.node[2].veinsmobility 	stopTime 	43
scalar Scenario2.node[2].veinsmobility 	minSpeed 	3.897912896338
scalar Scenario2.node[2].veinsmobility 	maxSpeed 	18.952529372755
scalar Scenario2.node[2].veinsmobility 	totalDistance 	587.77899406994
scalar Scenario2.node[2].veinsmobility 	totalCO2Emission 	134.19222120583
scalar Scenario2.node[100].appl 	generatedWSMs 	1
scalar Scenario2.node[100].appl 	receivedWSMs 	6
scalar Scenario2.node[100].appl 	generatedBSMs 	360
scalar Scenario2.node[100].appl 	receivedBSMs 	34064
scalar Scenario2.node[100].appl 	generatedWSAs 	0
scalar Scenario2.node[100].appl 	receivedWSAs 	0
scalar Scenario2.node[100].appl 	delayWSM 	0.000564790531
scalar Scenario2.node[100].appl 	Dist_Propa 	654.58340671823
scalar Scenario2.node[100].nic.phy80211p 	busyTime 	0.10621644444441
scalar Scenario2.node[100].nic.phy80211p 	ncollisions 	1272
scalar Scenario2.node[100].nic.mac1609_4 	ReceivedUnicastPackets 	0
scalar Scenario2.node[100].nic.mac1609_4 	ReceivedBroadcasts 	34070
scalar Scenario2.node[100].nic.mac1609_4 	SentPackets 	361
scalar Scenario2.node[100].nic.mac1609_4 	SNIRLostPackets 	2616
scalar Scenario2.node[100].nic.mac1609_4 	RXTXLostPackets 	33
scalar Scenario2.node[100].nic.mac1609_4 	TotalLostPackets 	2649
scalar Scenario2.node[100].nic.mac1609_4 	DroppedPacketsInMac 	0
scalar Scenario2.node[100].nic.mac1609_4 	TooLittleTime 	0
scalar Scenario2.node[100].nic.mac1609_4 	TimesIntoBackoff 	362
scalar Scenario2.node[100].nic.mac1609_4 	SlotsBackoff 	540
scalar Scenario2.node[100].nic.mac1609_4 	NumInternalContention 	0
scalar Scenario2.node[100].nic.mac1609_4 	totalBusyTime 	3.715105676612
scalar Scenario2.node[100].veinsmobility 	startTime 	7
scalar Scenario2.node[100].veinsmobility 	totalTime 	35
scalar Scenario2.node[100].veinsmobility 	stopTime 	43
scalar Scenario2.node[100].veinsmobility 	minSpeed 	3.7401869103686
scalar Scenario2.node[100].veinsmobility 	maxSpeed 	18.953406393947
scalar Scenario2.node[100].veinsmobility 	totalDistance 	554.61934619149
scalar Scenario2.node[100].veinsmobility 	totalCO2Emission 	124.93218523496
scalar Scenario2.node[75].appl 	generatedWSMs 	1
scalar Scenario2.node[75].appl 	receivedWSMs 	6
scalar Scenario2.node[75].appl 	generatedBSMs 	410
scalar Scenario2.node[75].appl 	receivedBSMs 	38158
scalar Scenario2.node[75].appl 	generatedWSAs 	0
scalar Scenario2.node[75].appl 	receivedWSAs 	0
scalar Scenario2.node[75].appl 	delayWSM 	0.000564743819
scalar Scenario2.node[75].appl 	Dist_Propa 	665.84503905867
scalar Scenario2.node[75].nic.phy80211p 	busyTime 	0.10483648780487
scalar Scenario2.node[75].nic.phy80211p 	ncollisions 	1460
scalar Scenario2.node[75].nic.mac1609_4 	ReceivedUnicastPackets 	0
scalar Scenario2.node[75].nic.mac1609_4 	ReceivedBroadcasts 	38164
scalar Scenario2.node[75].nic.mac1609_4 	SentPackets 	411
scalar Scenario2.node[75].nic.mac1609_4 	SNIRLostPackets 	3039
scalar Scenario2.node[75].nic.mac1609_4 	RXTXLostPackets 	4
scalar Scenario2.node[75].nic.mac1609_4 	TotalLostPackets 	3043
scalar Scenario2.node[75].nic.mac1609_4 	DroppedPacketsInMac 	0
scalar Scenario2.node[75].nic.mac1609_4 	TooLittleTime 	0
scalar Scenario2.node[75].nic.mac1609_4 	TimesIntoBackoff 	412
scalar Scenario2.node[75].nic.mac1609_4 	SlotsBackoff 	620
scalar Scenario2.node[75].nic.mac1609_4 	NumInternalContention 	0
scalar Scenario2.node[75].nic.mac1609_4 	totalBusyTime 	4.165795565249
scalar Scenario2.node[75].veinsmobility 	startTime 	3
scalar Scenario2.node[75].veinsmobility 	totalTime 	40
scalar Scenario2.node[75].veinsmobility 	stopTime 	44
scalar Scenario2.node[75].veinsmobility 	minSpeed 	3.7663311277212
scalar Scenario2.node[75].veinsmobility 	maxSpeed 	18.953042766952
scalar Scenario2.node[75].veinsmobility 	totalDistance 	592.6119070957
scalar Scenario2.node[75].veinsmobility 	totalCO2Emission 	136.32523109303
scalar Scenario2.node[102].appl 	generatedWSMs 	1
scalar Scenario2.node[102].appl 	receivedWSMs 	7
scalar Scenario2.node[102].appl 	generatedBSMs 	370
scalar Scenario2.node[102].appl 	receivedBSMs 	36202
scalar Scenario2.node[102].appl 	generatedWSAs 	0
scalar Scenario2.node[102].appl 	receivedWSAs 	0
scalar Scenario2.node[102].appl 	delayWSM 	0.000564713726
scalar Scenario2.node[102].appl 	Dist_Propa 	680.70566208874
scalar Scenario2.node[102].nic.phy80211p 	busyTime 	0.10985448648646
scalar Scenario2.node[102].nic.phy80211p 	ncollisions 	1373
scalar Scenario2.node[102].nic.mac1609_4 	ReceivedUnicastPackets 	0
scalar Scenario2.node[102].nic.mac1609_4 	ReceivedBroadcasts 	36209
scalar Scenario2.node[102].nic.mac1609_4 	SentPackets 	371
scalar Scenario2.node[102].nic.mac1609_4 	SNIRLostPackets 	2784
scalar Scenario2.node[102].nic.mac1609_4 	RXTXLostPackets 	37
scalar Scenario2.node[102].nic.mac1609_4 	TotalLostPackets 	2821
scalar Scenario2.node[102].nic.mac1609_4 	DroppedPacketsInMac 	0
scalar Scenario2.node[102].nic.mac1609_4 	TooLittleTime 	0
scalar Scenario2.node[102].nic.mac1609_4 	TimesIntoBackoff 	372
scalar Scenario2.node[102].nic.mac1609_4 	SlotsBackoff 	557
scalar Scenario2.node[102].nic.mac1609_4 	NumInternalContention 	0
scalar Scenario2.node[102].nic.mac1609_4 	totalBusyTime 	3.948999867418
scalar Scenario2.node[102].veinsmobility 	startTime 	7
scalar Scenario2.node[102].veinsmobility 	totalTime 	36
scalar Scenario2.node[102].veinsmobility 	stopTime 	44
scalar Scenario2.node[102].veinsmobility 	minSpeed 	2.9899711694765
scalar Scenario2.node[102].veinsmobility 	maxSpeed 	18.986820058792
scalar Scenario2.node[102].veinsmobility 	totalDistance 	561.05710037719
scalar Scenario2.node[102].veinsmobility 	totalCO2Emission 	128.11329495202
scalar Scenario2.node[10].appl 	generatedWSMs 	1
scalar Scenario2.node[10].appl 	receivedWSMs 	7
scalar Scenario2.node[10].appl 	generatedBSMs 	440
scalar Scenario2.node[10].appl 	receivedBSMs 	41183
scalar Scenario2.node[10].appl 	generatedWSAs 	0
scalar Scenario2.node[10].appl 	receivedWSAs 	0
scalar Scenario2.node[10].appl 	delayWSM 	0.000564671375
scalar Scenario2.node[10].appl 	Dist_Propa 	679.20502737565
scalar Scenario2.node[10].nic.phy80211p 	busyTime 	0.10528800000002
scalar Scenario2.node[10].nic.phy80211p 	ncollisions 	1578
scalar Scenario2.node[10].nic.mac1609_4 	ReceivedUnicastPackets 	0
scalar Scenario2.node[10].nic.mac1609_4 	ReceivedBroadcasts 	41190
scalar Scenario2.node[10].nic.mac1609_4 	SentPackets 	441
scalar Scenario2.node[10].nic.mac1609_4 	SNIRLostPackets 	3254
scalar Scenario2.node[10].nic.mac1609_4 	RXTXLostPackets 	56
scalar Scenario2.node[10].nic.mac1609_4 	TotalLostPackets 	3310
scalar Scenario2.node[10].nic.mac1609_4 	DroppedPacketsInMac 	0
scalar Scenario2.node[10].nic.mac1609_4 	TooLittleTime 	0
scalar Scenario2.node[10].nic.mac1609_4 	TimesIntoBackoff 	662
scalar Scenario2.node[10].nic.mac1609_4 	SlotsBackoff 	981
scalar Scenario2.node[10].nic.mac1609_4 	NumInternalContention 	0
scalar Scenario2.node[10].nic.mac1609_4 	totalBusyTime 	4.495713150986
scalar Scenario2.node[10].veinsmobility 	startTime 	1
scalar Scenario2.node[10].veinsmobility 	totalTime 	43
scalar Scenario2.node[10].veinsmobility 	stopTime 	45
scalar Scenario2.node[10].veinsmobility 	minSpeed 	3.6504235994233
scalar Scenario2.node[10].veinsmobility 	maxSpeed 	18.96345657906
scalar Scenario2.node[10].veinsmobility 	totalDistance 	629.30644292796
scalar Scenario2.node[10].veinsmobility 	totalCO2Emission 	142.41398201351
scalar Scenario2.node[12].appl 	generatedWSMs 	1
scalar Scenario2.node[12].appl 	receivedWSMs 	7
scalar Scenario2.node[12].appl 	generatedBSMs 	450
scalar Scenario2.node[12].appl 	receivedBSMs 	43431
scalar Scenario2.node[12].appl 	generatedWSAs 	0
scalar Scenario2.node[12].appl 	receivedWSAs 	0
scalar Scenario2.node[12].appl 	delayWSM 	0.000564599857
scalar Scenario2.node[12].appl 	Dist_Propa 	693.22158630203
scalar Scenario2.node[12].nic.phy80211p 	busyTime 	0.10823537777781
scalar Scenario2.node[12].nic.phy80211p 	ncollisions 	1594
scalar Scenario2.node[12].nic.mac1609_4 	ReceivedUnicastPackets 	0
scalar Scenario2.node[12].nic.mac1609_4 	ReceivedBroadcasts 	43438
scalar Scenario2.node[12].nic.mac1609_4 	SentPackets 	451
scalar Scenario2.node[12].nic.mac1609_4 	SNIRLostPackets 	3272
scalar Scenario2.node[12].nic.mac1609_4 	RXTXLostPackets 	149
scalar Scenario2.node[12].nic.mac1609_4 	TotalLostPackets 	3421
scalar Scenario2.node[12].nic.mac1609_4 	DroppedPacketsInMac 	0
scalar Scenario2.node[12].nic.mac1609_4 	TooLittleTime 	0
scalar Scenario2.node[12].nic.mac1609_4 	TimesIntoBackoff 	902
scalar Scenario2.node[12].nic.mac1609_4 	SlotsBackoff 	1337
scalar Scenario2.node[12].nic.mac1609_4 	NumInternalContention 	0
scalar Scenario2.node[12].nic.mac1609_4 	totalBusyTime 	4.732219371353
scalar Scenario2.node[12].veinsmobility 	startTime 	1
scalar Scenario2.node[12].veinsmobility 	totalTime 	44
scalar Scenario2.node[12].veinsmobility 	stopTime 	46
scalar Scenario2.node[12].veinsmobility 	minSpeed 	3.8852701568365
scalar Scenario2.node[12].veinsmobility 	maxSpeed 	18.996202773422
scalar Scenario2.node[12].veinsmobility 	totalDistance 	635.78531932981
scalar Scenario2.node[12].veinsmobility 	totalCO2Emission 	140.16590807303
scalar Scenario2.node[132].appl 	generatedWSMs 	1
scalar Scenario2.node[132].appl 	receivedWSMs 	8
scalar Scenario2.node[132].appl 	generatedBSMs 	340
scalar Scenario2.node[132].appl 	receivedBSMs 	35922
scalar Scenario2.node[132].appl 	generatedWSAs 	0
scalar Scenario2.node[132].appl 	receivedWSAs 	0
scalar Scenario2.node[132].appl 	delayWSM 	0.00056451833
scalar Scenario2.node[132].appl 	Dist_Propa 	742.22728541442
scalar Scenario2.node[132].nic.phy80211p 	busyTime 	0.11897058823526
scalar Scenario2.node[132].nic.phy80211p 	ncollisions 	1477
scalar Scenario2.node[132].nic.mac1609_4 	ReceivedUnicastPackets 	0
scalar Scenario2.node[132].nic.mac1609_4 	ReceivedBroadcasts 	35930
scalar Scenario2.node[132].nic.mac1609_4 	SentPackets 	341
scalar Scenario2.node[132].nic.mac1609_4 	SNIRLostPackets 	2833
scalar Scenario2.node[132].nic.mac1609_4 	RXTXLostPackets 	33
scalar Scenario2.node[132].nic.mac1609_4 	TotalLostPackets 	2866
scalar Scenario2.node[132].nic.mac1609_4 	DroppedPacketsInMac 	0
scalar Scenario2.node[132].nic.mac1609_4 	TooLittleTime 	0
scalar Scenario2.node[132].nic.mac1609_4 	TimesIntoBackoff 	342
scalar Scenario2.node[132].nic.mac1609_4 	SlotsBackoff 	492
scalar Scenario2.node[132].nic.mac1609_4 	NumInternalContention 	0
scalar Scenario2.node[132].nic.mac1609_4 	totalBusyTime 	3.927783066415
scalar Scenario2.node[132].veinsmobility 	startTime 	13
scalar Scenario2.node[132].veinsmobility 	totalTime 	33
scalar Scenario2.node[132].veinsmobility 	stopTime 	47
scalar Scenario2.node[132].veinsmobility 	minSpeed 	1.0325582238956
scalar Scenario2.node[132].veinsmobility 	maxSpeed 	18.997862700217
scalar Scenario2.node[132].veinsmobility 	totalDistance 	503.42720242976
scalar Scenario2.node[132].veinsmobility 	totalCO2Emission 	123.10429419579
scalar Scenario2.node[127].appl 	generatedWSMs 	1
scalar Scenario2.node[127].appl 	receivedWSMs 	7
scalar Scenario2.node[127].appl 	generatedBSMs 	350
scalar Scenario2.node[127].appl 	receivedBSMs 	37207
scalar Scenario2.node[127].appl 	generatedWSAs 	0
scalar Scenario2.node[127].appl 	receivedWSAs 	0
scalar Scenario2.node[127].appl 	delayWSM 	0.000564520755
scalar Scenario2.node[127].appl 	Dist_Propa 	729.99495757223
scalar Scenario2.node[127].nic.phy80211p 	busyTime 	0.11954674285712
scalar Scenario2.node[127].nic.phy80211p 	ncollisions 	1483
scalar Scenario2.node[127].nic.mac1609_4 	ReceivedUnicastPackets 	0
scalar Scenario2.node[127].nic.mac1609_4 	ReceivedBroadcasts 	37214
scalar Scenario2.node[127].nic.mac1609_4 	SentPackets 	351
scalar Scenario2.node[127].nic.mac1609_4 	SNIRLostPackets 	2879
scalar Scenario2.node[127].nic.mac1609_4 	RXTXLostPackets 	23
scalar Scenario2.node[127].nic.mac1609_4 	TotalLostPackets 	2902
scalar Scenario2.node[127].nic.mac1609_4 	DroppedPacketsInMac 	0
scalar Scenario2.node[127].nic.mac1609_4 	TooLittleTime 	0
scalar Scenario2.node[127].nic.mac1609_4 	TimesIntoBackoff 	352
scalar Scenario2.node[127].nic.mac1609_4 	SlotsBackoff 	522
scalar Scenario2.node[127].nic.mac1609_4 	NumInternalContention 	0
scalar Scenario2.node[127].nic.mac1609_4 	totalBusyTime 	4.06288663655
scalar Scenario2.node[127].veinsmobility 	startTime 	12
scalar Scenario2.node[127].veinsmobility 	totalTime 	34
scalar Scenario2.node[127].veinsmobility 	stopTime 	47
scalar Scenario2.node[127].veinsmobility 	minSpeed 	3.570553295702
scalar Scenario2.node[127].veinsmobility 	maxSpeed 	18.975364867717
scalar Scenario2.node[127].veinsmobility 	totalDistance 	531.42299839614
scalar Scenario2.node[127].veinsmobility 	totalCO2Emission 	124.39114956524
scalar Scenario2.node[137].appl 	generatedWSMs 	1
scalar Scenario2.node[137].appl 	receivedWSMs 	8
scalar Scenario2.node[137].appl 	generatedBSMs 	340
scalar Scenario2.node[137].appl 	receivedBSMs 	36217
scalar Scenario2.node[137].appl 	generatedWSAs 	0
scalar Scenario2.node[137].appl 	receivedWSAs 	0
scalar Scenario2.node[137].appl 	delayWSM 	0.000564446219
scalar Scenario2.node[137].appl 	Dist_Propa 	752.89850497086
scalar Scenario2.node[137].nic.phy80211p 	busyTime 	0.11987482352938
scalar Scenario2.node[137].nic.phy80211p 	ncollisions 	1452
scalar Scenario2.node[137].nic.mac1609_4 	ReceivedUnicastPackets 	0
scalar Scenario2.node[137].nic.mac1609_4 	ReceivedBroadcasts 	36225
scalar Scenario2.node[137].nic.mac1609_4 	SentPackets 	341
scalar Scenario2.node[137].nic.mac1609_4 	SNIRLostPackets 	2825
scalar Scenario2.node[137].nic.mac1609_4 	RXTXLostPackets 	35
scalar Scenario2.node[137].nic.mac1609_4 	TotalLostPackets 	2860
scalar Scenario2.node[137].nic.mac1609_4 	DroppedPacketsInMac 	0
scalar Scenario2.node[137].nic.mac1609_4 	TooLittleTime 	0
scalar Scenario2.node[137].nic.mac1609_4 	TimesIntoBackoff 	342
scalar Scenario2.node[137].nic.mac1609_4 	SlotsBackoff 	498
scalar Scenario2.node[137].nic.mac1609_4 	NumInternalContention 	0
scalar Scenario2.node[137].nic.mac1609_4 	totalBusyTime 	3.955749576264
scalar Scenario2.node[137].veinsmobility 	startTime 	15
scalar Scenario2.node[137].veinsmobility 	totalTime 	33
scalar Scenario2.node[137].veinsmobility 	stopTime 	49
scalar Scenario2.node[137].veinsmobility 	minSpeed 	3.7054345497005
scalar Scenario2.node[137].veinsmobility 	maxSpeed 	18.949315995281
scalar Scenario2.node[137].veinsmobility 	totalDistance 	521.67415162342
scalar Scenario2.node[137].veinsmobility 	totalCO2Emission 	120.89327527729
scalar Scenario2.node[141].appl 	generatedWSMs 	1
scalar Scenario2.node[141].appl 	receivedWSMs 	8
scalar Scenario2.node[141].appl 	generatedBSMs 	340
scalar Scenario2.node[141].appl 	receivedBSMs 	36426
scalar Scenario2.node[141].appl 	generatedWSAs 	0
scalar Scenario2.node[141].appl 	receivedWSAs 	0
scalar Scenario2.node[141].appl 	delayWSM 	0.000564445368
scalar Scenario2.node[141].appl 	Dist_Propa 	752.19734561178
scalar Scenario2.node[141].nic.phy80211p 	busyTime 	0.12048658823526
scalar Scenario2.node[141].nic.phy80211p 	ncollisions 	1431
scalar Scenario2.node[141].nic.mac1609_4 	ReceivedUnicastPackets 	0
scalar Scenario2.node[141].nic.mac1609_4 	ReceivedBroadcasts 	36434
scalar Scenario2.node[141].nic.mac1609_4 	SentPackets 	341
scalar Scenario2.node[141].nic.mac1609_4 	SNIRLostPackets 	2816
scalar Scenario2.node[141].nic.mac1609_4 	RXTXLostPackets 	35
scalar Scenario2.node[141].nic.mac1609_4 	TotalLostPackets 	2851
scalar Scenario2.node[141].nic.mac1609_4 	DroppedPacketsInMac 	0
scalar Scenario2.node[141].nic.mac1609_4 	TooLittleTime 	0
scalar Scenario2.node[141].nic.mac1609_4 	TimesIntoBackoff 	342
scalar Scenario2.node[141].nic.mac1609_4 	SlotsBackoff 	545
scalar Scenario2.node[141].nic.mac1609_4 	NumInternalContention 	0
scalar Scenario2.node[141].nic.mac1609_4 	totalBusyTime 	3.975786845524
scalar Scenario2.node[141].veinsmobility 	startTime 	15
scalar Scenario2.node[141].veinsmobility 	totalTime 	33
scalar Scenario2.node[141].veinsmobility 	stopTime 	49
scalar Scenario2.node[141].veinsmobility 	minSpeed 	2.4699518346809
scalar Scenario2.node[141].veinsmobility 	maxSpeed 	18.998616740918
scalar Scenario2.node[141].veinsmobility 	totalDistance 	536.39102144913
scalar Scenario2.node[141].veinsmobility 	totalCO2Emission 	124.36501758974
scalar Scenario2.node[105].appl 	generatedWSMs 	1
scalar Scenario2.node[105].appl 	receivedWSMs 	8
scalar Scenario2.node[105].appl 	generatedBSMs 	420
scalar Scenario2.node[105].appl 	receivedBSMs 	45694
scalar Scenario2.node[105].appl 	generatedWSAs 	0
scalar Scenario2.node[105].appl 	receivedWSAs 	0
scalar Scenario2.node[105].appl 	delayWSM 	0.000273051413
scalar Scenario2.node[105].appl 	Dist_Propa 	488.78747738736
scalar Scenario2.node[105].nic.phy80211p 	busyTime 	0.12289295238101
scalar Scenario2.node[105].nic.phy80211p 	ncollisions 	1806
scalar Scenario2.node[105].nic.mac1609_4 	ReceivedUnicastPackets 	0
scalar Scenario2.node[105].nic.mac1609_4 	ReceivedBroadcasts 	45702
scalar Scenario2.node[105].nic.mac1609_4 	SentPackets 	421
scalar Scenario2.node[105].nic.mac1609_4 	SNIRLostPackets 	3790
scalar Scenario2.node[105].nic.mac1609_4 	RXTXLostPackets 	51
scalar Scenario2.node[105].nic.mac1609_4 	TotalLostPackets 	3841
scalar Scenario2.node[105].nic.mac1609_4 	DroppedPacketsInMac 	0
scalar Scenario2.node[105].nic.mac1609_4 	TooLittleTime 	0
scalar Scenario2.node[105].nic.mac1609_4 	TimesIntoBackoff 	422
scalar Scenario2.node[105].nic.mac1609_4 	SlotsBackoff 	648
scalar Scenario2.node[105].nic.mac1609_4 	NumInternalContention 	0
scalar Scenario2.node[105].nic.mac1609_4 	totalBusyTime 	4.987859307891
scalar Scenario2.node[105].veinsmobility 	startTime 	7
scalar Scenario2.node[105].veinsmobility 	totalTime 	41
scalar Scenario2.node[105].veinsmobility 	stopTime 	49
scalar Scenario2.node[105].veinsmobility 	minSpeed 	0.79846306713479
scalar Scenario2.node[105].veinsmobility 	maxSpeed 	18.9987192666
scalar Scenario2.node[105].veinsmobility 	totalDistance 	574.23690866301
scalar Scenario2.node[105].veinsmobility 	totalCO2Emission 	139.39240827924
scalar Scenario2.node[163].appl 	generatedWSMs 	1
scalar Scenario2.node[163].appl 	receivedWSMs 	7
scalar Scenario2.node[163].appl 	generatedBSMs 	320
scalar Scenario2.node[163].appl 	receivedBSMs 	35158
scalar Scenario2.node[163].appl 	generatedWSAs 	0
scalar Scenario2.node[163].appl 	receivedWSAs 	0
scalar Scenario2.node[163].appl 	delayWSM 	0.000564347968
scalar Scenario2.node[163].appl 	Dist_Propa 	794.07504768646
scalar Scenario2.node[163].nic.phy80211p 	busyTime 	0.12357274999996
scalar Scenario2.node[163].nic.phy80211p 	ncollisions 	1287
scalar Scenario2.node[163].nic.mac1609_4 	ReceivedUnicastPackets 	0
scalar Scenario2.node[163].nic.mac1609_4 	ReceivedBroadcasts 	35165
scalar Scenario2.node[163].nic.mac1609_4 	SentPackets 	321
scalar Scenario2.node[163].nic.mac1609_4 	SNIRLostPackets 	2674
scalar Scenario2.node[163].nic.mac1609_4 	RXTXLostPackets 	6
scalar Scenario2.node[163].nic.mac1609_4 	TotalLostPackets 	2680
scalar Scenario2.node[163].nic.mac1609_4 	DroppedPacketsInMac 	0
scalar Scenario2.node[163].nic.mac1609_4 	TooLittleTime 	0
scalar Scenario2.node[163].nic.mac1609_4 	TimesIntoBackoff 	562
scalar Scenario2.node[163].nic.mac1609_4 	SlotsBackoff 	838
scalar Scenario2.node[163].nic.mac1609_4 	NumInternalContention 	0
scalar Scenario2.node[163].nic.mac1609_4 	totalBusyTime 	3.826249884015
scalar Scenario2.node[163].veinsmobility 	startTime 	18
scalar Scenario2.node[163].veinsmobility 	totalTime 	31
scalar Scenario2.node[163].veinsmobility 	stopTime 	50
scalar Scenario2.node[163].veinsmobility 	minSpeed 	3.2362021176079
scalar Scenario2.node[163].veinsmobility 	maxSpeed 	18.995516344768
scalar Scenario2.node[163].veinsmobility 	totalDistance 	507.69244103002
scalar Scenario2.node[163].veinsmobility 	totalCO2Emission 	119.51915105506
scalar Scenario2.node[164].appl 	generatedWSMs 	1
scalar Scenario2.node[164].appl 	receivedWSMs 	8
scalar Scenario2.node[164].appl 	generatedBSMs 	330
scalar Scenario2.node[164].appl 	receivedBSMs 	37665
scalar Scenario2.node[164].appl 	generatedWSAs 	0
scalar Scenario2.node[164].appl 	receivedWSAs 	0
scalar Scenario2.node[164].appl 	delayWSM 	0.000272973368
scalar Scenario2.node[164].appl 	Dist_Propa 	526.79441376929
scalar Scenario2.node[164].nic.phy80211p 	busyTime 	0.12892509090908
scalar Scenario2.node[164].nic.phy80211p 	ncollisions 	1532
scalar Scenario2.node[164].nic.mac1609_4 	ReceivedUnicastPackets 	0
scalar Scenario2.node[164].nic.mac1609_4 	ReceivedBroadcasts 	37673
scalar Scenario2.node[164].nic.mac1609_4 	SentPackets 	331
scalar Scenario2.node[164].nic.mac1609_4 	SNIRLostPackets 	3071
scalar Scenario2.node[164].nic.mac1609_4 	RXTXLostPackets 	38
scalar Scenario2.node[164].nic.mac1609_4 	TotalLostPackets 	3109
scalar Scenario2.node[164].nic.mac1609_4 	DroppedPacketsInMac 	0
scalar Scenario2.node[164].nic.mac1609_4 	TooLittleTime 	0
scalar Scenario2.node[164].nic.mac1609_4 	TimesIntoBackoff 	332
scalar Scenario2.node[164].nic.mac1609_4 	SlotsBackoff 	474
scalar Scenario2.node[164].nic.mac1609_4 	NumInternalContention 	0
scalar Scenario2.node[164].nic.mac1609_4 	totalBusyTime 	4.114480907673
scalar Scenario2.node[164].veinsmobility 	startTime 	18
scalar Scenario2.node[164].veinsmobility 	totalTime 	32
scalar Scenario2.node[164].veinsmobility 	stopTime 	51
scalar Scenario2.node[164].veinsmobility 	minSpeed 	2.6560707084217
scalar Scenario2.node[164].veinsmobility 	maxSpeed 	18.995079022406
scalar Scenario2.node[164].veinsmobility 	totalDistance 	520.46900373988
scalar Scenario2.node[164].veinsmobility 	totalCO2Emission 	121.70739795369
scalar Scenario2.node[151].appl 	generatedWSMs 	1
scalar Scenario2.node[151].appl 	receivedWSMs 	8
scalar Scenario2.node[151].appl 	generatedBSMs 	350
scalar Scenario2.node[151].appl 	receivedBSMs 	40236
scalar Scenario2.node[151].appl 	generatedWSAs 	0
scalar Scenario2.node[151].appl 	receivedWSAs 	0
scalar Scenario2.node[151].appl 	delayWSM 	0.000273263717
scalar Scenario2.node[151].appl 	Dist_Propa 	188.30540535788
scalar Scenario2.node[151].nic.phy80211p 	busyTime 	0.12897074285715
scalar Scenario2.node[151].nic.phy80211p 	ncollisions 	1405
scalar Scenario2.node[151].nic.mac1609_4 	ReceivedUnicastPackets 	0
scalar Scenario2.node[151].nic.mac1609_4 	ReceivedBroadcasts 	40244
scalar Scenario2.node[151].nic.mac1609_4 	SentPackets 	351
scalar Scenario2.node[151].nic.mac1609_4 	SNIRLostPackets 	2959
scalar Scenario2.node[151].nic.mac1609_4 	RXTXLostPackets 	90
scalar Scenario2.node[151].nic.mac1609_4 	TotalLostPackets 	3049
scalar Scenario2.node[151].nic.mac1609_4 	DroppedPacketsInMac 	0
scalar Scenario2.node[151].nic.mac1609_4 	TooLittleTime 	0
scalar Scenario2.node[151].nic.mac1609_4 	TimesIntoBackoff 	397
scalar Scenario2.node[151].nic.mac1609_4 	SlotsBackoff 	575
scalar Scenario2.node[151].nic.mac1609_4 	NumInternalContention 	0
scalar Scenario2.node[151].nic.mac1609_4 	totalBusyTime 	4.371361479084
scalar Scenario2.node[151].veinsmobility 	startTime 	16
scalar Scenario2.node[151].veinsmobility 	totalTime 	34
scalar Scenario2.node[151].veinsmobility 	stopTime 	51
scalar Scenario2.node[151].veinsmobility 	minSpeed 	1.4619825295685
scalar Scenario2.node[151].veinsmobility 	maxSpeed 	18.99749420386
scalar Scenario2.node[151].veinsmobility 	totalDistance 	519.28776174372
scalar Scenario2.node[151].veinsmobility 	totalCO2Emission 	125.8211529421
scalar Scenario2.node[145].appl 	generatedWSMs 	1
scalar Scenario2.node[145].appl 	receivedWSMs 	8
scalar Scenario2.node[145].appl 	generatedBSMs 	350
scalar Scenario2.node[145].appl 	receivedBSMs 	40236
scalar Scenario2.node[145].appl 	generatedWSAs 	0
scalar Scenario2.node[145].appl 	receivedWSAs 	0
scalar Scenario2.node[145].appl 	delayWSM 	0.000273264191
scalar Scenario2.node[145].appl 	Dist_Propa 	190.86144924829
scalar Scenario2.node[145].nic.phy80211p 	busyTime 	0.12938674285715
scalar Scenario2.node[145].nic.phy80211p 	ncollisions 	1444
scalar Scenario2.node[145].nic.mac1609_4 	ReceivedUnicastPackets 	0
scalar Scenario2.node[145].nic.mac1609_4 	ReceivedBroadcasts 	40244
scalar Scenario2.node[145].nic.mac1609_4 	SentPackets 	351
scalar Scenario2.node[145].nic.mac1609_4 	SNIRLostPackets 	3099
scalar Scenario2.node[145].nic.mac1609_4 	RXTXLostPackets 	0
scalar Scenario2.node[145].nic.mac1609_4 	TotalLostPackets 	3099
scalar Scenario2.node[145].nic.mac1609_4 	DroppedPacketsInMac 	0
scalar Scenario2.node[145].nic.mac1609_4 	TooLittleTime 	0
scalar Scenario2.node[145].nic.mac1609_4 	TimesIntoBackoff 	351
scalar Scenario2.node[145].nic.mac1609_4 	SlotsBackoff 	538
scalar Scenario2.node[145].nic.mac1609_4 	NumInternalContention 	0
scalar Scenario2.node[145].nic.mac1609_4 	totalBusyTime 	4.374557239017
scalar Scenario2.node[145].veinsmobility 	startTime 	16
scalar Scenario2.node[145].veinsmobility 	totalTime 	34
scalar Scenario2.node[145].veinsmobility 	stopTime 	51
scalar Scenario2.node[145].veinsmobility 	minSpeed 	3.482900294836
scalar Scenario2.node[145].veinsmobility 	maxSpeed 	18.993171909307
scalar Scenario2.node[145].veinsmobility 	totalDistance 	528.29977957109
scalar Scenario2.node[145].veinsmobility 	totalCO2Emission 	124.25854551765
scalar Scenario2.node[30].appl 	generatedWSMs 	1
scalar Scenario2.node[30].appl 	receivedWSMs 	8
scalar Scenario2.node[30].appl 	generatedBSMs 	510
scalar Scenario2.node[30].appl 	receivedBSMs 	55594
scalar Scenario2.node[30].appl 	generatedWSAs 	0
scalar Scenario2.node[30].appl 	receivedWSAs 	0
scalar Scenario2.node[30].appl 	delayWSM 	0.000272939641
scalar Scenario2.node[30].appl 	Dist_Propa 	547.21728368944
scalar Scenario2.node[30].nic.phy80211p 	busyTime 	0.12170070588246
scalar Scenario2.node[30].nic.phy80211p 	ncollisions 	1671
scalar Scenario2.node[30].nic.mac1609_4 	ReceivedUnicastPackets 	0
scalar Scenario2.node[30].nic.mac1609_4 	ReceivedBroadcasts 	55602
scalar Scenario2.node[30].nic.mac1609_4 	SentPackets 	511
scalar Scenario2.node[30].nic.mac1609_4 	SNIRLostPackets 	3896
scalar Scenario2.node[30].nic.mac1609_4 	RXTXLostPackets 	34
scalar Scenario2.node[30].nic.mac1609_4 	TotalLostPackets 	3930
scalar Scenario2.node[30].nic.mac1609_4 	DroppedPacketsInMac 	0
scalar Scenario2.node[30].nic.mac1609_4 	TooLittleTime 	0
scalar Scenario2.node[30].nic.mac1609_4 	TimesIntoBackoff 	512
scalar Scenario2.node[30].nic.mac1609_4 	SlotsBackoff 	833
scalar Scenario2.node[30].nic.mac1609_4 	NumInternalContention 	0
scalar Scenario2.node[30].nic.mac1609_4 	totalBusyTime 	6.011968613839
scalar Scenario2.node[30].veinsmobility 	startTime 	1
scalar Scenario2.node[30].veinsmobility 	totalTime 	50
scalar Scenario2.node[30].veinsmobility 	stopTime 	52
scalar Scenario2.node[30].veinsmobility 	minSpeed 	2.6830987371857
scalar Scenario2.node[30].veinsmobility 	maxSpeed 	18.998360855293
scalar Scenario2.node[30].veinsmobility 	totalDistance 	840.56722214892
scalar Scenario2.node[30].veinsmobility 	totalCO2Emission 	180.75164650604
scalar Scenario2.node[7].appl 	generatedWSMs 	1
scalar Scenario2.node[7].appl 	receivedWSMs 	9
scalar Scenario2.node[7].appl 	generatedBSMs 	520
scalar Scenario2.node[7].appl 	receivedBSMs 	55990
scalar Scenario2.node[7].appl 	generatedWSAs 	0
scalar Scenario2.node[7].appl 	receivedWSAs 	0
scalar Scenario2.node[7].appl 	delayWSM 	0.000273198386
scalar Scenario2.node[7].appl 	Dist_Propa 	183.93798667698
scalar Scenario2.node[7].nic.phy80211p 	busyTime 	0.12111400000011
scalar Scenario2.node[7].nic.phy80211p 	ncollisions 	1881
scalar Scenario2.node[7].nic.mac1609_4 	ReceivedUnicastPackets 	0
scalar Scenario2.node[7].nic.mac1609_4 	ReceivedBroadcasts 	55999
scalar Scenario2.node[7].nic.mac1609_4 	SentPackets 	521
scalar Scenario2.node[7].nic.mac1609_4 	SNIRLostPackets 	4350
scalar Scenario2.node[7].nic.mac1609_4 	RXTXLostPackets 	0
scalar Scenario2.node[7].nic.mac1609_4 	TotalLostPackets 	4350
scalar Scenario2.node[7].nic.mac1609_4 	DroppedPacketsInMac 	0
scalar Scenario2.node[7].nic.mac1609_4 	TooLittleTime 	0
scalar Scenario2.node[7].nic.mac1609_4 	TimesIntoBackoff 	521
scalar Scenario2.node[7].nic.mac1609_4 	SlotsBackoff 	839
scalar Scenario2.node[7].nic.mac1609_4 	NumInternalContention 	0
scalar Scenario2.node[7].nic.mac1609_4 	totalBusyTime 	6.076083736222
scalar Scenario2.node[7].veinsmobility 	startTime 	1
scalar Scenario2.node[7].veinsmobility 	totalTime 	51
scalar Scenario2.node[7].veinsmobility 	stopTime 	53
scalar Scenario2.node[7].veinsmobility 	minSpeed 	3.4814017046965
scalar Scenario2.node[7].veinsmobility 	maxSpeed 	18.941884985482
scalar Scenario2.node[7].veinsmobility 	totalDistance 	681.4852853963
scalar Scenario2.node[7].veinsmobility 	totalCO2Emission 	169.58589405808
scalar Scenario2.node[172].appl 	generatedWSMs 	1
scalar Scenario2.node[172].appl 	receivedWSMs 	9
scalar Scenario2.node[172].appl 	generatedBSMs 	330
scalar Scenario2.node[172].appl 	receivedBSMs 	37521
scalar Scenario2.node[172].appl 	generatedWSAs 	0
scalar Scenario2.node[172].appl 	receivedWSAs 	0
scalar Scenario2.node[172].appl 	delayWSM 	0.000273166454
scalar Scenario2.node[172].appl 	Dist_Propa 	218.07971375174
scalar Scenario2.node[172].nic.phy80211p 	busyTime 	0.12794739393937
scalar Scenario2.node[172].nic.phy80211p 	ncollisions 	1351
scalar Scenario2.node[172].nic.mac1609_4 	ReceivedUnicastPackets 	0
scalar Scenario2.node[172].nic.mac1609_4 	ReceivedBroadcasts 	37530
scalar Scenario2.node[172].nic.mac1609_4 	SentPackets 	331
scalar Scenario2.node[172].nic.mac1609_4 	SNIRLostPackets 	2903
scalar Scenario2.node[172].nic.mac1609_4 	RXTXLostPackets 	59
scalar Scenario2.node[172].nic.mac1609_4 	TotalLostPackets 	2962
scalar Scenario2.node[172].nic.mac1609_4 	DroppedPacketsInMac 	0
scalar Scenario2.node[172].nic.mac1609_4 	TooLittleTime 	0
scalar Scenario2.node[172].nic.mac1609_4 	TimesIntoBackoff 	582
scalar Scenario2.node[172].nic.mac1609_4 	SlotsBackoff 	885
scalar Scenario2.node[172].nic.mac1609_4 	NumInternalContention 	0
scalar Scenario2.node[172].nic.mac1609_4 	totalBusyTime 	4.080300058694
scalar Scenario2.node[172].veinsmobility 	startTime 	20
scalar Scenario2.node[172].veinsmobility 	totalTime 	32
scalar Scenario2.node[172].veinsmobility 	stopTime 	53
scalar Scenario2.node[172].veinsmobility 	minSpeed 	2.4127571361848
scalar Scenario2.node[172].veinsmobility 	maxSpeed 	18.994554119785
scalar Scenario2.node[172].veinsmobility 	totalDistance 	522.38118095875
scalar Scenario2.node[172].veinsmobility 	totalCO2Emission 	122.12195354617
scalar Scenario2.node[1].appl 	generatedWSMs 	1
scalar Scenario2.node[1].appl 	receivedWSMs 	8
scalar Scenario2.node[1].appl 	generatedBSMs 	530
scalar Scenario2.node[1].appl 	receivedBSMs 	58187
scalar Scenario2.node[1].appl 	generatedWSAs 	0
scalar Scenario2.node[1].appl 	receivedWSAs 	0
scalar Scenario2.node[1].appl 	delayWSM 	0.000273134981
scalar Scenario2.node[1].appl 	Dist_Propa 	179.16403219133
scalar Scenario2.node[1].nic.phy80211p 	busyTime 	0.12351441509446
scalar Scenario2.node[1].nic.phy80211p 	ncollisions 	1926
scalar Scenario2.node[1].nic.mac1609_4 	ReceivedUnicastPackets 	0
scalar Scenario2.node[1].nic.mac1609_4 	ReceivedBroadcasts 	58195
scalar Scenario2.node[1].nic.mac1609_4 	SentPackets 	531
scalar Scenario2.node[1].nic.mac1609_4 	SNIRLostPackets 	4532
scalar Scenario2.node[1].nic.mac1609_4 	RXTXLostPackets 	0
scalar Scenario2.node[1].nic.mac1609_4 	TotalLostPackets 	4532
scalar Scenario2.node[1].nic.mac1609_4 	DroppedPacketsInMac 	0
scalar Scenario2.node[1].nic.mac1609_4 	TooLittleTime 	0
scalar Scenario2.node[1].nic.mac1609_4 	TimesIntoBackoff 	531
scalar Scenario2.node[1].nic.mac1609_4 	SlotsBackoff 	797
scalar Scenario2.node[1].nic.mac1609_4 	NumInternalContention 	0
scalar Scenario2.node[1].nic.mac1609_4 	totalBusyTime 	6.310259458812
scalar Scenario2.node[1].veinsmobility 	startTime 	1
scalar Scenario2.node[1].veinsmobility 	totalTime 	52
scalar Scenario2.node[1].veinsmobility 	stopTime 	54
scalar Scenario2.node[1].veinsmobility 	minSpeed 	3.7822135175928
scalar Scenario2.node[1].veinsmobility 	maxSpeed 	18.973847482234
scalar Scenario2.node[1].veinsmobility 	totalDistance 	704.43927912732
scalar Scenario2.node[1].veinsmobility 	totalCO2Emission 	171.29382234949
scalar Scenario2.node[0].appl 	generatedWSMs 	1
scalar Scenario2.node[0].appl 	receivedWSMs 	8
scalar Scenario2.node[0].appl 	generatedBSMs 	540
scalar Scenario2.node[0].appl 	receivedBSMs 	60230
scalar Scenario2.node[0].appl 	generatedWSAs 	0
scalar Scenario2.node[0].appl 	receivedWSAs 	0
scalar Scenario2.node[0].appl 	delayWSM 	0.000273074416
scalar Scenario2.node[0].appl 	Dist_Propa 	174.10324431344
scalar Scenario2.node[0].nic.phy80211p 	busyTime 	0.12525451851865
scalar Scenario2.node[0].nic.phy80211p 	ncollisions 	1884
scalar Scenario2.node[0].nic.mac1609_4 	ReceivedUnicastPackets 	0
scalar Scenario2.node[0].nic.mac1609_4 	ReceivedBroadcasts 	60238
scalar Scenario2.node[0].nic.mac1609_4 	SentPackets 	541
scalar Scenario2.node[0].nic.mac1609_4 	SNIRLostPackets 	4574
scalar Scenario2.node[0].nic.mac1609_4 	RXTXLostPackets 	0
scalar Scenario2.node[0].nic.mac1609_4 	TotalLostPackets 	4574
scalar Scenario2.node[0].nic.mac1609_4 	DroppedPacketsInMac 	0
scalar Scenario2.node[0].nic.mac1609_4 	TooLittleTime 	0
scalar Scenario2.node[0].nic.mac1609_4 	TimesIntoBackoff 	541
scalar Scenario2.node[0].nic.mac1609_4 	SlotsBackoff 	801
scalar Scenario2.node[0].nic.mac1609_4 	NumInternalContention 	0
scalar Scenario2.node[0].nic.mac1609_4 	totalBusyTime 	6.519413543852
scalar Scenario2.node[0].veinsmobility 	startTime 	1
scalar Scenario2.node[0].veinsmobility 	totalTime 	53
scalar Scenario2.node[0].veinsmobility 	stopTime 	55
scalar Scenario2.node[0].veinsmobility 	minSpeed 	4.0518554631622
scalar Scenario2.node[0].veinsmobility 	maxSpeed 	18.978534762523
scalar Scenario2.node[0].veinsmobility 	totalDistance 	722.21584162014
scalar Scenario2.node[0].veinsmobility 	totalCO2Emission 	172.20829987187
scalar Scenario2.node[187].appl 	generatedWSMs 	1
scalar Scenario2.node[187].appl 	receivedWSMs 	10
scalar Scenario2.node[187].appl 	generatedBSMs 	320
scalar Scenario2.node[187].appl 	receivedBSMs 	36449
scalar Scenario2.node[187].appl 	generatedWSAs 	0
scalar Scenario2.node[187].appl 	receivedWSAs 	0
scalar Scenario2.node[187].appl 	delayWSM 	0.000272999174
scalar Scenario2.node[187].appl 	Dist_Propa 	97.181615332872
scalar Scenario2.node[187].nic.phy80211p 	busyTime 	0.12928949999997
scalar Scenario2.node[187].nic.phy80211p 	ncollisions 	1436
scalar Scenario2.node[187].nic.mac1609_4 	ReceivedUnicastPackets 	0
scalar Scenario2.node[187].nic.mac1609_4 	ReceivedBroadcasts 	36459
scalar Scenario2.node[187].nic.mac1609_4 	SentPackets 	321
scalar Scenario2.node[187].nic.mac1609_4 	SNIRLostPackets 	3139
scalar Scenario2.node[187].nic.mac1609_4 	RXTXLostPackets 	39
scalar Scenario2.node[187].nic.mac1609_4 	TotalLostPackets 	3178
scalar Scenario2.node[187].nic.mac1609_4 	DroppedPacketsInMac 	0
scalar Scenario2.node[187].nic.mac1609_4 	TooLittleTime 	0
scalar Scenario2.node[187].nic.mac1609_4 	TimesIntoBackoff 	323
scalar Scenario2.node[187].nic.mac1609_4 	SlotsBackoff 	479
scalar Scenario2.node[187].nic.mac1609_4 	NumInternalContention 	0
scalar Scenario2.node[187].nic.mac1609_4 	totalBusyTime 	3.976705664219
scalar Scenario2.node[187].veinsmobility 	startTime 	24
scalar Scenario2.node[187].veinsmobility 	totalTime 	31
scalar Scenario2.node[187].veinsmobility 	stopTime 	56
scalar Scenario2.node[187].veinsmobility 	minSpeed 	3.5479495325158
scalar Scenario2.node[187].veinsmobility 	maxSpeed 	18.989325714761
scalar Scenario2.node[187].veinsmobility 	totalDistance 	512.82987526149
scalar Scenario2.node[187].veinsmobility 	totalCO2Emission 	119.00436191503
scalar Scenario2.node[59].appl 	generatedWSMs 	1
scalar Scenario2.node[59].appl 	receivedWSMs 	10
scalar Scenario2.node[59].appl 	generatedBSMs 	540
scalar Scenario2.node[59].appl 	receivedBSMs 	61884
scalar Scenario2.node[59].appl 	generatedWSAs 	0
scalar Scenario2.node[59].appl 	receivedWSAs 	0
scalar Scenario2.node[59].appl 	delayWSM 	0.000273016348
scalar Scenario2.node[59].appl 	Dist_Propa 	165.13211160877
scalar Scenario2.node[59].nic.phy80211p 	busyTime 	0.1282232592594
scalar Scenario2.node[59].nic.phy80211p 	ncollisions 	1860
scalar Scenario2.node[59].nic.mac1609_4 	ReceivedUnicastPackets 	0
scalar Scenario2.node[59].nic.mac1609_4 	ReceivedBroadcasts 	61894
scalar Scenario2.node[59].nic.mac1609_4 	SentPackets 	541
scalar Scenario2.node[59].nic.mac1609_4 	SNIRLostPackets 	4503
scalar Scenario2.node[59].nic.mac1609_4 	RXTXLostPackets 	160
scalar Scenario2.node[59].nic.mac1609_4 	TotalLostPackets 	4663
scalar Scenario2.node[59].nic.mac1609_4 	DroppedPacketsInMac 	0
scalar Scenario2.node[59].nic.mac1609_4 	TooLittleTime 	0
scalar Scenario2.node[59].nic.mac1609_4 	TimesIntoBackoff 	873
scalar Scenario2.node[59].nic.mac1609_4 	SlotsBackoff 	1336
scalar Scenario2.node[59].nic.mac1609_4 	NumInternalContention 	0
scalar Scenario2.node[59].nic.mac1609_4 	totalBusyTime 	6.689141880263
scalar Scenario2.node[59].veinsmobility 	startTime 	2
scalar Scenario2.node[59].veinsmobility 	totalTime 	53
scalar Scenario2.node[59].veinsmobility 	stopTime 	56
scalar Scenario2.node[59].veinsmobility 	minSpeed 	3.6013252442564
scalar Scenario2.node[59].veinsmobility 	maxSpeed 	18.987841719773
scalar Scenario2.node[59].veinsmobility 	totalDistance 	716.20343049081
scalar Scenario2.node[59].veinsmobility 	totalCO2Emission 	168.97854168429
scalar Scenario2.node[79].appl 	generatedWSMs 	1
scalar Scenario2.node[79].appl 	receivedWSMs 	8
scalar Scenario2.node[79].appl 	generatedBSMs 	530
scalar Scenario2.node[79].appl 	receivedBSMs 	59361
scalar Scenario2.node[79].appl 	generatedWSAs 	0
scalar Scenario2.node[79].appl 	receivedWSAs 	0
scalar Scenario2.node[79].appl 	delayWSM 	0.000272852907
scalar Scenario2.node[79].appl 	Dist_Propa 	427.71731748877
scalar Scenario2.node[79].nic.phy80211p 	busyTime 	0.12684800000013
scalar Scenario2.node[79].nic.phy80211p 	ncollisions 	2463
scalar Scenario2.node[79].nic.mac1609_4 	ReceivedUnicastPackets 	0
scalar Scenario2.node[79].nic.mac1609_4 	ReceivedBroadcasts 	59369
scalar Scenario2.node[79].nic.mac1609_4 	SentPackets 	531
scalar Scenario2.node[79].nic.mac1609_4 	SNIRLostPackets 	5079
scalar Scenario2.node[79].nic.mac1609_4 	RXTXLostPackets 	29
scalar Scenario2.node[79].nic.mac1609_4 	TotalLostPackets 	5108
scalar Scenario2.node[79].nic.mac1609_4 	DroppedPacketsInMac 	0
scalar Scenario2.node[79].nic.mac1609_4 	TooLittleTime 	0
scalar Scenario2.node[79].nic.mac1609_4 	TimesIntoBackoff 	532
scalar Scenario2.node[79].nic.mac1609_4 	SlotsBackoff 	785
scalar Scenario2.node[79].nic.mac1609_4 	NumInternalContention 	0
scalar Scenario2.node[79].nic.mac1609_4 	totalBusyTime 	6.488078004585
scalar Scenario2.node[79].veinsmobility 	startTime 	3
scalar Scenario2.node[79].veinsmobility 	totalTime 	52
scalar Scenario2.node[79].veinsmobility 	stopTime 	56
scalar Scenario2.node[79].veinsmobility 	minSpeed 	2.4267099683262
scalar Scenario2.node[79].veinsmobility 	maxSpeed 	18.985454387709
scalar Scenario2.node[79].veinsmobility 	totalDistance 	605.76482859178
scalar Scenario2.node[79].veinsmobility 	totalCO2Emission 	160.49542827298
scalar Scenario2.node[184].appl 	generatedWSMs 	1
scalar Scenario2.node[184].appl 	receivedWSMs 	9
scalar Scenario2.node[184].appl 	generatedBSMs 	340
scalar Scenario2.node[184].appl 	receivedBSMs 	40081
scalar Scenario2.node[184].appl 	generatedWSAs 	0
scalar Scenario2.node[184].appl 	receivedWSAs 	0
scalar Scenario2.node[184].appl 	delayWSM 	0.000272940087
scalar Scenario2.node[184].appl 	Dist_Propa 	46.200071672497
scalar Scenario2.node[184].nic.phy80211p 	busyTime 	0.13383835294119
scalar Scenario2.node[184].nic.phy80211p 	ncollisions 	1599
scalar Scenario2.node[184].nic.mac1609_4 	ReceivedUnicastPackets 	0
scalar Scenario2.node[184].nic.mac1609_4 	ReceivedBroadcasts 	40090
scalar Scenario2.node[184].nic.mac1609_4 	SentPackets 	341
scalar Scenario2.node[184].nic.mac1609_4 	SNIRLostPackets 	3463
scalar Scenario2.node[184].nic.mac1609_4 	RXTXLostPackets 	29
scalar Scenario2.node[184].nic.mac1609_4 	TotalLostPackets 	3492
scalar Scenario2.node[184].nic.mac1609_4 	DroppedPacketsInMac 	0
scalar Scenario2.node[184].nic.mac1609_4 	TooLittleTime 	0
scalar Scenario2.node[184].nic.mac1609_4 	TimesIntoBackoff 	342
scalar Scenario2.node[184].nic.mac1609_4 	SlotsBackoff 	522
scalar Scenario2.node[184].nic.mac1609_4 	NumInternalContention 	0
scalar Scenario2.node[184].nic.mac1609_4 	totalBusyTime 	4.373509549185
scalar Scenario2.node[184].veinsmobility 	startTime 	23
scalar Scenario2.node[184].veinsmobility 	totalTime 	33
scalar Scenario2.node[184].veinsmobility 	stopTime 	57
scalar Scenario2.node[184].veinsmobility 	minSpeed 	1.4962625184391
scalar Scenario2.node[184].veinsmobility 	maxSpeed 	18.979892871417
scalar Scenario2.node[184].veinsmobility 	totalDistance 	514.97323348459
scalar Scenario2.node[184].veinsmobility 	totalCO2Emission 	122.9472972326
scalar Scenario2.node[13].appl 	generatedWSMs 	1
scalar Scenario2.node[13].appl 	receivedWSMs 	9
scalar Scenario2.node[13].appl 	generatedBSMs 	560
scalar Scenario2.node[13].appl 	receivedBSMs 	64311
scalar Scenario2.node[13].appl 	generatedWSAs 	0
scalar Scenario2.node[13].appl 	receivedWSAs 	0
scalar Scenario2.node[13].appl 	delayWSM 	0.000272960709
scalar Scenario2.node[13].appl 	Dist_Propa 	151.29448177665
scalar Scenario2.node[13].nic.phy80211p 	busyTime 	0.12831414285729
scalar Scenario2.node[13].nic.phy80211p 	ncollisions 	1756
scalar Scenario2.node[13].nic.mac1609_4 	ReceivedUnicastPackets 	0
scalar Scenario2.node[13].nic.mac1609_4 	ReceivedBroadcasts 	64320
scalar Scenario2.node[13].nic.mac1609_4 	SentPackets 	561
scalar Scenario2.node[13].nic.mac1609_4 	SNIRLostPackets 	4611
scalar Scenario2.node[13].nic.mac1609_4 	RXTXLostPackets 	60
scalar Scenario2.node[13].nic.mac1609_4 	TotalLostPackets 	4671
scalar Scenario2.node[13].nic.mac1609_4 	DroppedPacketsInMac 	0
scalar Scenario2.node[13].nic.mac1609_4 	TooLittleTime 	0
scalar Scenario2.node[13].nic.mac1609_4 	TimesIntoBackoff 	562
scalar Scenario2.node[13].nic.mac1609_4 	SlotsBackoff 	851
scalar Scenario2.node[13].nic.mac1609_4 	NumInternalContention 	0
scalar Scenario2.node[13].nic.mac1609_4 	totalBusyTime 	6.93285860898
scalar Scenario2.node[13].veinsmobility 	startTime 	1
scalar Scenario2.node[13].veinsmobility 	totalTime 	55
scalar Scenario2.node[13].veinsmobility 	stopTime 	57
scalar Scenario2.node[13].veinsmobility 	minSpeed 	3.7319341546602
scalar Scenario2.node[13].veinsmobility 	maxSpeed 	18.914364551105
scalar Scenario2.node[13].veinsmobility 	totalDistance 	760.32197011235
scalar Scenario2.node[13].veinsmobility 	totalCO2Emission 	178.60946014272
scalar Scenario2.node[168].appl 	generatedWSMs 	1
scalar Scenario2.node[168].appl 	receivedWSMs 	9
scalar Scenario2.node[168].appl 	generatedBSMs 	380
scalar Scenario2.node[168].appl 	receivedBSMs 	46548
scalar Scenario2.node[168].appl 	generatedWSAs 	0
scalar Scenario2.node[168].appl 	receivedWSAs 	0
scalar Scenario2.node[168].appl 	delayWSM 	0.000272896292
scalar Scenario2.node[168].appl 	Dist_Propa 	41.208031579475
scalar Scenario2.node[168].nic.phy80211p 	busyTime 	0.13896273684218
scalar Scenario2.node[168].nic.phy80211p 	ncollisions 	1810
scalar Scenario2.node[168].nic.mac1609_4 	ReceivedUnicastPackets 	0
scalar Scenario2.node[168].nic.mac1609_4 	ReceivedBroadcasts 	46557
scalar Scenario2.node[168].nic.mac1609_4 	SentPackets 	381
scalar Scenario2.node[168].nic.mac1609_4 	SNIRLostPackets 	4016
scalar Scenario2.node[168].nic.mac1609_4 	RXTXLostPackets 	29
scalar Scenario2.node[168].nic.mac1609_4 	TotalLostPackets 	4045
scalar Scenario2.node[168].nic.mac1609_4 	DroppedPacketsInMac 	0
scalar Scenario2.node[168].nic.mac1609_4 	TooLittleTime 	0
scalar Scenario2.node[168].nic.mac1609_4 	TimesIntoBackoff 	382
scalar Scenario2.node[168].nic.mac1609_4 	SlotsBackoff 	593
scalar Scenario2.node[168].nic.mac1609_4 	NumInternalContention 	0
scalar Scenario2.node[168].nic.mac1609_4 	totalBusyTime 	5.072222765778
scalar Scenario2.node[168].veinsmobility 	startTime 	20
scalar Scenario2.node[168].veinsmobility 	totalTime 	37
scalar Scenario2.node[168].veinsmobility 	stopTime 	58
scalar Scenario2.node[168].veinsmobility 	minSpeed 	0
scalar Scenario2.node[168].veinsmobility 	maxSpeed 	18.968500454263
scalar Scenario2.node[168].veinsmobility 	totalDistance 	523.20473672205
scalar Scenario2.node[168].veinsmobility 	totalCO2Emission 	132.34195669029
scalar Scenario2.node[9].appl 	generatedWSMs 	1
scalar Scenario2.node[9].appl 	receivedWSMs 	9
scalar Scenario2.node[9].appl 	generatedBSMs 	580
scalar Scenario2.node[9].appl 	receivedBSMs 	66274
scalar Scenario2.node[9].appl 	generatedWSAs 	0
scalar Scenario2.node[9].appl 	receivedWSAs 	0
scalar Scenario2.node[9].appl 	delayWSM 	0.000272907161
scalar Scenario2.node[9].appl 	Dist_Propa 	152.19555821929
scalar Scenario2.node[9].nic.phy80211p 	busyTime 	0.12705544827602
scalar Scenario2.node[9].nic.phy80211p 	ncollisions 	1725
scalar Scenario2.node[9].nic.mac1609_4 	ReceivedUnicastPackets 	0
scalar Scenario2.node[9].nic.mac1609_4 	ReceivedBroadcasts 	66283
scalar Scenario2.node[9].nic.mac1609_4 	SentPackets 	581
scalar Scenario2.node[9].nic.mac1609_4 	SNIRLostPackets 	4373
scalar Scenario2.node[9].nic.mac1609_4 	RXTXLostPackets 	406
scalar Scenario2.node[9].nic.mac1609_4 	TotalLostPackets 	4779
scalar Scenario2.node[9].nic.mac1609_4 	DroppedPacketsInMac 	0
scalar Scenario2.node[9].nic.mac1609_4 	TooLittleTime 	0
scalar Scenario2.node[9].nic.mac1609_4 	TimesIntoBackoff 	582
scalar Scenario2.node[9].nic.mac1609_4 	SlotsBackoff 	882
scalar Scenario2.node[9].nic.mac1609_4 	NumInternalContention 	0
scalar Scenario2.node[9].nic.mac1609_4 	totalBusyTime 	7.135886059684
scalar Scenario2.node[9].veinsmobility 	startTime 	1
scalar Scenario2.node[9].veinsmobility 	totalTime 	57
scalar Scenario2.node[9].veinsmobility 	stopTime 	59
scalar Scenario2.node[9].veinsmobility 	minSpeed 	3.932047590691
scalar Scenario2.node[9].veinsmobility 	maxSpeed 	18.958448226
scalar Scenario2.node[9].veinsmobility 	totalDistance 	820.05985265805
scalar Scenario2.node[9].veinsmobility 	totalCO2Emission 	196.30053678776
scalar Scenario2.node[156].appl 	generatedWSMs 	1
scalar Scenario2.node[156].appl 	receivedWSMs 	8
scalar Scenario2.node[156].appl 	generatedBSMs 	420
scalar Scenario2.node[156].appl 	receivedBSMs 	52637
scalar Scenario2.node[156].appl 	generatedWSAs 	0
scalar Scenario2.node[156].appl 	receivedWSAs 	0
scalar Scenario2.node[156].appl 	delayWSM 	0.000272859086
[...]
scalar Scenario2.node[251].nic.mac1609_4 	DroppedPacketsInMac 	0
scalar Scenario2.node[251].nic.mac1609_4 	TooLittleTime 	0
scalar Scenario2.node[251].nic.mac1609_4 	TimesIntoBackoff 	70
scalar Scenario2.node[251].nic.mac1609_4 	SlotsBackoff 	113
scalar Scenario2.node[251].nic.mac1609_4 	NumInternalContention 	0
scalar Scenario2.node[251].nic.mac1609_4 	totalBusyTime 	0.15191
scalar Scenario2.node[251].veinsmobility 	startTime 	53
scalar Scenario2.node[251].veinsmobility 	totalTime 	7
scalar Scenario2.node[251].veinsmobility 	stopTime 	60
scalar Scenario2.node[251].veinsmobility 	minSpeed 	3.3749732255289
scalar Scenario2.node[251].veinsmobility 	maxSpeed 	14.969494598986
scalar Scenario2.node[251].veinsmobility 	totalDistance 	58.638704761298
scalar Scenario2.node[251].veinsmobility 	totalCO2Emission 	38.710387034317
scalar Scenario2.node[254].appl 	generatedWSMs 	0
scalar Scenario2.node[254].appl 	receivedWSMs 	0
scalar Scenario2.node[254].appl 	generatedBSMs 	50
scalar Scenario2.node[254].appl 	receivedBSMs 	922
scalar Scenario2.node[254].appl 	generatedWSAs 	0
scalar Scenario2.node[254].appl 	receivedWSAs 	0
scalar Scenario2.node[254].appl 	delayWSM 	-1
scalar Scenario2.node[254].appl 	Dist_Propa 	-1
scalar Scenario2.node[254].nic.phy80211p 	busyTime 	0.019552
scalar Scenario2.node[254].nic.phy80211p 	ncollisions 	18
scalar Scenario2.node[254].nic.mac1609_4 	ReceivedUnicastPackets 	0
scalar Scenario2.node[254].nic.mac1609_4 	ReceivedBroadcasts 	922
scalar Scenario2.node[254].nic.mac1609_4 	SentPackets 	50
scalar Scenario2.node[254].nic.mac1609_4 	SNIRLostPackets 	18
scalar Scenario2.node[254].nic.mac1609_4 	RXTXLostPackets 	0
scalar Scenario2.node[254].nic.mac1609_4 	TotalLostPackets 	18
scalar Scenario2.node[254].nic.mac1609_4 	DroppedPacketsInMac 	0
scalar Scenario2.node[254].nic.mac1609_4 	TooLittleTime 	0
scalar Scenario2.node[254].nic.mac1609_4 	TimesIntoBackoff 	50
scalar Scenario2.node[254].nic.mac1609_4 	SlotsBackoff 	85
scalar Scenario2.node[254].nic.mac1609_4 	NumInternalContention 	0
scalar Scenario2.node[254].nic.mac1609_4 	totalBusyTime 	0.10301
scalar Scenario2.node[254].veinsmobility 	startTime 	55
scalar Scenario2.node[254].veinsmobility 	totalTime 	5
scalar Scenario2.node[254].veinsmobility 	stopTime 	60
scalar Scenario2.node[254].veinsmobility 	minSpeed 	4.1467374746261
scalar Scenario2.node[254].veinsmobility 	maxSpeed 	11.606694836134
scalar Scenario2.node[254].veinsmobility 	totalDistance 	34.638113438887
scalar Scenario2.node[254].veinsmobility 	totalCO2Emission 	22.250403430648
scalar Scenario2.node[255].appl 	generatedWSMs 	0
scalar Scenario2.node[255].appl 	receivedWSMs 	0
scalar Scenario2.node[255].appl 	generatedBSMs 	40
scalar Scenario2.node[255].appl 	receivedBSMs 	729
scalar Scenario2.node[255].appl 	generatedWSAs 	0
scalar Scenario2.node[255].appl 	receivedWSAs 	0
scalar Scenario2.node[255].appl 	delayWSM 	-1
scalar Scenario2.node[255].appl 	Dist_Propa 	-1
scalar Scenario2.node[255].nic.phy80211p 	busyTime 	0.0195
scalar Scenario2.node[255].nic.phy80211p 	ncollisions 	21
scalar Scenario2.node[255].nic.mac1609_4 	ReceivedUnicastPackets 	0
scalar Scenario2.node[255].nic.mac1609_4 	ReceivedBroadcasts 	729
scalar Scenario2.node[255].nic.mac1609_4 	SentPackets 	40
scalar Scenario2.node[255].nic.mac1609_4 	SNIRLostPackets 	21
scalar Scenario2.node[255].nic.mac1609_4 	RXTXLostPackets 	0
scalar Scenario2.node[255].nic.mac1609_4 	TotalLostPackets 	21
scalar Scenario2.node[255].nic.mac1609_4 	DroppedPacketsInMac 	0
scalar Scenario2.node[255].nic.mac1609_4 	TooLittleTime 	0
scalar Scenario2.node[255].nic.mac1609_4 	TimesIntoBackoff 	40
scalar Scenario2.node[255].nic.mac1609_4 	SlotsBackoff 	60
scalar Scenario2.node[255].nic.mac1609_4 	NumInternalContention 	0
scalar Scenario2.node[255].nic.mac1609_4 	totalBusyTime 	0.0822
scalar Scenario2.node[255].veinsmobility 	startTime 	56
scalar Scenario2.node[255].veinsmobility 	totalTime 	4
scalar Scenario2.node[255].veinsmobility 	stopTime 	60
scalar Scenario2.node[255].veinsmobility 	minSpeed 	2.4095380588329
scalar Scenario2.node[255].veinsmobility 	maxSpeed 	8.1382013312156
scalar Scenario2.node[255].veinsmobility 	totalDistance 	17.782100549166
scalar Scenario2.node[255].veinsmobility 	totalCO2Emission 	12.921392037435
scalar Scenario2.node[258].appl 	generatedWSMs 	0
scalar Scenario2.node[258].appl 	receivedWSMs 	0
scalar Scenario2.node[258].appl 	generatedBSMs 	20
scalar Scenario2.node[258].appl 	receivedBSMs 	348
scalar Scenario2.node[258].appl 	generatedWSAs 	0
scalar Scenario2.node[258].appl 	receivedWSAs 	0
scalar Scenario2.node[258].appl 	delayWSM 	-1
scalar Scenario2.node[258].appl 	Dist_Propa 	-1
scalar Scenario2.node[258].nic.phy80211p 	busyTime 	0.0182
scalar Scenario2.node[258].nic.phy80211p 	ncollisions 	2
scalar Scenario2.node[258].nic.mac1609_4 	ReceivedUnicastPackets 	0
scalar Scenario2.node[258].nic.mac1609_4 	ReceivedBroadcasts 	348
scalar Scenario2.node[258].nic.mac1609_4 	SentPackets 	20
scalar Scenario2.node[258].nic.mac1609_4 	SNIRLostPackets 	2
scalar Scenario2.node[258].nic.mac1609_4 	RXTXLostPackets 	0
scalar Scenario2.node[258].nic.mac1609_4 	TotalLostPackets 	2
scalar Scenario2.node[258].nic.mac1609_4 	DroppedPacketsInMac 	0
scalar Scenario2.node[258].nic.mac1609_4 	TooLittleTime 	0
scalar Scenario2.node[258].nic.mac1609_4 	TimesIntoBackoff 	20
scalar Scenario2.node[258].nic.mac1609_4 	SlotsBackoff 	21
scalar Scenario2.node[258].nic.mac1609_4 	NumInternalContention 	0
scalar Scenario2.node[258].nic.mac1609_4 	totalBusyTime 	0.0385
scalar Scenario2.node[258].veinsmobility 	startTime 	58
scalar Scenario2.node[258].veinsmobility 	totalTime 	2
scalar Scenario2.node[258].veinsmobility 	stopTime 	60
scalar Scenario2.node[258].veinsmobility 	minSpeed 	2.7294526099854
scalar Scenario2.node[258].veinsmobility 	maxSpeed 	4.5797816218155
scalar Scenario2.node[258].veinsmobility 	totalDistance 	5.6359190073888
scalar Scenario2.node[258].veinsmobility 	totalCO2Emission 	3.3820611870713
scalar Scenario2.node[130].appl 	generatedWSMs 	1
scalar Scenario2.node[130].appl 	receivedWSMs 	9
scalar Scenario2.node[130].appl 	generatedBSMs 	480
scalar Scenario2.node[130].appl 	receivedBSMs 	57934
scalar Scenario2.node[130].appl 	generatedWSAs 	0
scalar Scenario2.node[130].appl 	receivedWSAs 	0
scalar Scenario2.node[130].appl 	delayWSM 	0.000565110491
scalar Scenario2.node[130].appl 	Dist_Propa 	826.97932789935
scalar Scenario2.node[130].nic.phy80211p 	busyTime 	0.13620600000014
scalar Scenario2.node[130].nic.phy80211p 	ncollisions 	2379
scalar Scenario2.node[130].nic.mac1609_4 	ReceivedUnicastPackets 	0
scalar Scenario2.node[130].nic.mac1609_4 	ReceivedBroadcasts 	57943
scalar Scenario2.node[130].nic.mac1609_4 	SentPackets 	481
scalar Scenario2.node[130].nic.mac1609_4 	SNIRLostPackets 	4781
scalar Scenario2.node[130].nic.mac1609_4 	RXTXLostPackets 	33
scalar Scenario2.node[130].nic.mac1609_4 	TotalLostPackets 	4814
scalar Scenario2.node[130].nic.mac1609_4 	DroppedPacketsInMac 	0
scalar Scenario2.node[130].nic.mac1609_4 	TooLittleTime 	0
scalar Scenario2.node[130].nic.mac1609_4 	TimesIntoBackoff 	482
scalar Scenario2.node[130].nic.mac1609_4 	SlotsBackoff 	716
scalar Scenario2.node[130].nic.mac1609_4 	NumInternalContention 	0
scalar Scenario2.node[130].nic.mac1609_4 	totalBusyTime 	6.326270707166
scalar Scenario2.node[130].veinsmobility 	startTime 	12
scalar Scenario2.node[130].veinsmobility 	totalTime 	48
scalar Scenario2.node[130].veinsmobility 	stopTime 	60
scalar Scenario2.node[130].veinsmobility 	minSpeed 	3.257133028099
scalar Scenario2.node[130].veinsmobility 	maxSpeed 	18.999128500514
scalar Scenario2.node[130].veinsmobility 	totalDistance 	661.78815505913
scalar Scenario2.node[130].veinsmobility 	totalCO2Emission 	179.96048440599
scalar Scenario2.node[262].appl 	generatedWSMs 	0
scalar Scenario2.node[262].appl 	receivedWSMs 	0
scalar Scenario2.node[262].appl 	generatedBSMs 	0
scalar Scenario2.node[262].appl 	receivedBSMs 	0
scalar Scenario2.node[262].appl 	generatedWSAs 	0
scalar Scenario2.node[262].appl 	receivedWSAs 	0
scalar Scenario2.node[262].appl 	delayWSM 	-1
scalar Scenario2.node[262].appl 	Dist_Propa 	-1
scalar Scenario2.node[262].nic.phy80211p 	busyTime 	-nan
scalar Scenario2.node[262].nic.phy80211p 	ncollisions 	0
scalar Scenario2.node[262].nic.mac1609_4 	ReceivedUnicastPackets 	0
scalar Scenario2.node[262].nic.mac1609_4 	ReceivedBroadcasts 	0
scalar Scenario2.node[262].nic.mac1609_4 	SentPackets 	0
scalar Scenario2.node[262].nic.mac1609_4 	SNIRLostPackets 	0
scalar Scenario2.node[262].nic.mac1609_4 	RXTXLostPackets 	0
scalar Scenario2.node[262].nic.mac1609_4 	TotalLostPackets 	0
scalar Scenario2.node[262].nic.mac1609_4 	DroppedPacketsInMac 	0
scalar Scenario2.node[262].nic.mac1609_4 	TooLittleTime 	0
scalar Scenario2.node[262].nic.mac1609_4 	TimesIntoBackoff 	0
scalar Scenario2.node[262].nic.mac1609_4 	SlotsBackoff 	0
scalar Scenario2.node[262].nic.mac1609_4 	NumInternalContention 	0
scalar Scenario2.node[262].nic.mac1609_4 	totalBusyTime 	0
scalar Scenario2.node[262].veinsmobility 	startTime 	60
scalar Scenario2.node[262].veinsmobility 	totalTime 	0
scalar Scenario2.node[262].veinsmobility 	stopTime 	60
scalar Scenario2.node[262].veinsmobility 	totalDistance 	0
scalar Scenario2.node[262].veinsmobility 	totalCO2Emission 	0
scalar Scenario2.node[136].appl 	generatedWSMs 	1
scalar Scenario2.node[136].appl 	receivedWSMs 	8
scalar Scenario2.node[136].appl 	generatedBSMs 	460
scalar Scenario2.node[136].appl 	receivedBSMs 	55404
scalar Scenario2.node[136].appl 	generatedWSAs 	0
scalar Scenario2.node[136].appl 	receivedWSAs 	0
scalar Scenario2.node[136].appl 	delayWSM 	0.000565212263
scalar Scenario2.node[136].appl 	Dist_Propa 	862.20945226209
scalar Scenario2.node[136].nic.phy80211p 	busyTime 	0.13544365217404
scalar Scenario2.node[136].nic.phy80211p 	ncollisions 	2188
scalar Scenario2.node[136].nic.mac1609_4 	ReceivedUnicastPackets 	0
scalar Scenario2.node[136].nic.mac1609_4 	ReceivedBroadcasts 	55412
scalar Scenario2.node[136].nic.mac1609_4 	SentPackets 	461
scalar Scenario2.node[136].nic.mac1609_4 	SNIRLostPackets 	4369
scalar Scenario2.node[136].nic.mac1609_4 	RXTXLostPackets 	111
scalar Scenario2.node[136].nic.mac1609_4 	TotalLostPackets 	4480
scalar Scenario2.node[136].nic.mac1609_4 	DroppedPacketsInMac 	0
scalar Scenario2.node[136].nic.mac1609_4 	TooLittleTime 	0
scalar Scenario2.node[136].nic.mac1609_4 	TimesIntoBackoff 	604
scalar Scenario2.node[136].nic.mac1609_4 	SlotsBackoff 	848
scalar Scenario2.node[136].nic.mac1609_4 	NumInternalContention 	0
scalar Scenario2.node[136].nic.mac1609_4 	totalBusyTime 	6.040948055958
scalar Scenario2.node[136].veinsmobility 	startTime 	14
scalar Scenario2.node[136].veinsmobility 	totalTime 	46
scalar Scenario2.node[136].veinsmobility 	stopTime 	60
scalar Scenario2.node[136].veinsmobility 	minSpeed 	3.4777492481221
scalar Scenario2.node[136].veinsmobility 	maxSpeed 	18.986348388898
scalar Scenario2.node[136].veinsmobility 	totalDistance 	641.93276437025
scalar Scenario2.node[136].veinsmobility 	totalCO2Emission 	170.05792350486
scalar Scenario2.node[154].appl 	generatedWSMs 	1
scalar Scenario2.node[154].appl 	receivedWSMs 	7
scalar Scenario2.node[154].appl 	generatedBSMs 	440
scalar Scenario2.node[154].appl 	receivedBSMs 	53014
scalar Scenario2.node[154].appl 	generatedWSAs 	0
scalar Scenario2.node[154].appl 	receivedWSAs 	0
scalar Scenario2.node[154].appl 	delayWSM 	0.000565311071
scalar Scenario2.node[154].appl 	Dist_Propa 	884.01916652839
scalar Scenario2.node[154].nic.phy80211p 	busyTime 	0.13524690909102
scalar Scenario2.node[154].nic.phy80211p 	ncollisions 	1969
scalar Scenario2.node[154].nic.mac1609_4 	ReceivedUnicastPackets 	0
scalar Scenario2.node[154].nic.mac1609_4 	ReceivedBroadcasts 	53021
scalar Scenario2.node[154].nic.mac1609_4 	SentPackets 	441
scalar Scenario2.node[154].nic.mac1609_4 	SNIRLostPackets 	4061
scalar Scenario2.node[154].nic.mac1609_4 	RXTXLostPackets 	3
scalar Scenario2.node[154].nic.mac1609_4 	TotalLostPackets 	4064
scalar Scenario2.node[154].nic.mac1609_4 	DroppedPacketsInMac 	0
scalar Scenario2.node[154].nic.mac1609_4 	TooLittleTime 	0
scalar Scenario2.node[154].nic.mac1609_4 	TimesIntoBackoff 	442
scalar Scenario2.node[154].nic.mac1609_4 	SlotsBackoff 	711
scalar Scenario2.node[154].nic.mac1609_4 	NumInternalContention 	0
scalar Scenario2.node[154].nic.mac1609_4 	totalBusyTime 	5.767057195364
scalar Scenario2.node[154].veinsmobility 	startTime 	16
scalar Scenario2.node[154].veinsmobility 	totalTime 	44
scalar Scenario2.node[154].veinsmobility 	stopTime 	60
scalar Scenario2.node[154].veinsmobility 	minSpeed 	4.2176943966643
scalar Scenario2.node[154].veinsmobility 	maxSpeed 	18.990893175832
scalar Scenario2.node[154].veinsmobility 	totalDistance 	622.58382803624
scalar Scenario2.node[154].veinsmobility 	totalCO2Emission 	160.43838939463
scalar Scenario2.node[159].appl 	generatedWSMs 	1
scalar Scenario2.node[159].appl 	receivedWSMs 	7
scalar Scenario2.node[159].appl 	generatedBSMs 	430
scalar Scenario2.node[159].appl 	receivedBSMs 	50603
scalar Scenario2.node[159].appl 	generatedWSAs 	0
scalar Scenario2.node[159].appl 	receivedWSAs 	0
scalar Scenario2.node[159].appl 	delayWSM 	0.000565410417
scalar Scenario2.node[159].appl 	Dist_Propa 	907.08781253847
scalar Scenario2.node[159].nic.phy80211p 	busyTime 	0.1318210232559
scalar Scenario2.node[159].nic.phy80211p 	ncollisions 	1826
scalar Scenario2.node[159].nic.mac1609_4 	ReceivedUnicastPackets 	0
scalar Scenario2.node[159].nic.mac1609_4 	ReceivedBroadcasts 	50610
scalar Scenario2.node[159].nic.mac1609_4 	SentPackets 	431
scalar Scenario2.node[159].nic.mac1609_4 	SNIRLostPackets 	3792
scalar Scenario2.node[159].nic.mac1609_4 	RXTXLostPackets 	17
scalar Scenario2.node[159].nic.mac1609_4 	TotalLostPackets 	3809
scalar Scenario2.node[159].nic.mac1609_4 	DroppedPacketsInMac 	0
scalar Scenario2.node[159].nic.mac1609_4 	TooLittleTime 	0
scalar Scenario2.node[159].nic.mac1609_4 	TimesIntoBackoff 	432
scalar Scenario2.node[159].nic.mac1609_4 	SlotsBackoff 	678
scalar Scenario2.node[159].nic.mac1609_4 	NumInternalContention 	0
scalar Scenario2.node[159].nic.mac1609_4 	totalBusyTime 	5.502565809158
scalar Scenario2.node[159].veinsmobility 	startTime 	17
scalar Scenario2.node[159].veinsmobility 	totalTime 	43
scalar Scenario2.node[159].veinsmobility 	stopTime 	60
scalar Scenario2.node[159].veinsmobility 	minSpeed 	2.7087925310453
scalar Scenario2.node[159].veinsmobility 	maxSpeed 	18.998727781165
scalar Scenario2.node[159].veinsmobility 	totalDistance 	610.69359653895
scalar Scenario2.node[159].veinsmobility 	totalCO2Emission 	176.20026950234
scalar Scenario2.node[167].appl 	generatedWSMs 	1
scalar Scenario2.node[167].appl 	receivedWSMs 	4
scalar Scenario2.node[167].appl 	generatedBSMs 	410
scalar Scenario2.node[167].appl 	receivedBSMs 	48112
scalar Scenario2.node[167].appl 	generatedWSAs 	0
scalar Scenario2.node[167].appl 	receivedWSAs 	0
scalar Scenario2.node[167].appl 	delayWSM 	0.010509907747
scalar Scenario2.node[167].appl 	Dist_Propa 	945.75897468841
scalar Scenario2.node[167].nic.phy80211p 	busyTime 	0.13119121951227
scalar Scenario2.node[167].nic.phy80211p 	ncollisions 	1658
scalar Scenario2.node[167].nic.mac1609_4 	ReceivedUnicastPackets 	0
scalar Scenario2.node[167].nic.mac1609_4 	ReceivedBroadcasts 	48116
scalar Scenario2.node[167].nic.mac1609_4 	SentPackets 	411
scalar Scenario2.node[167].nic.mac1609_4 	SNIRLostPackets 	3499
scalar Scenario2.node[167].nic.mac1609_4 	RXTXLostPackets 	1
scalar Scenario2.node[167].nic.mac1609_4 	TotalLostPackets 	3500
scalar Scenario2.node[167].nic.mac1609_4 	DroppedPacketsInMac 	0
scalar Scenario2.node[167].nic.mac1609_4 	TooLittleTime 	0
scalar Scenario2.node[167].nic.mac1609_4 	TimesIntoBackoff 	411
scalar Scenario2.node[167].nic.mac1609_4 	SlotsBackoff 	624
scalar Scenario2.node[167].nic.mac1609_4 	NumInternalContention 	0
scalar Scenario2.node[167].nic.mac1609_4 	totalBusyTime 	5.223952450392
scalar Scenario2.node[167].veinsmobility 	startTime 	19
scalar Scenario2.node[167].veinsmobility 	totalTime 	41
scalar Scenario2.node[167].veinsmobility 	stopTime 	60
scalar Scenario2.node[167].veinsmobility 	minSpeed 	3.3557482195866
scalar Scenario2.node[167].veinsmobility 	maxSpeed 	18.999923923542
scalar Scenario2.node[167].veinsmobility 	totalDistance 	604.47872223042
scalar Scenario2.node[167].veinsmobility 	totalCO2Emission 	148.9181485535
scalar Scenario2.node[175].appl 	generatedWSMs 	1
scalar Scenario2.node[175].appl 	receivedWSMs 	2
scalar Scenario2.node[175].appl 	generatedBSMs 	390
scalar Scenario2.node[175].appl 	receivedBSMs 	44553
scalar Scenario2.node[175].appl 	generatedWSAs 	0
scalar Scenario2.node[175].appl 	receivedWSAs 	0
scalar Scenario2.node[175].appl 	delayWSM 	0.010801077397
scalar Scenario2.node[175].appl 	Dist_Propa 	789.57413169297
scalar Scenario2.node[175].nic.phy80211p 	busyTime 	0.12726030769235
scalar Scenario2.node[175].nic.phy80211p 	ncollisions 	1472
scalar Scenario2.node[175].nic.mac1609_4 	ReceivedUnicastPackets 	0
scalar Scenario2.node[175].nic.mac1609_4 	ReceivedBroadcasts 	44555
scalar Scenario2.node[175].nic.mac1609_4 	SentPackets 	391
scalar Scenario2.node[175].nic.mac1609_4 	SNIRLostPackets 	3111
scalar Scenario2.node[175].nic.mac1609_4 	RXTXLostPackets 	6
scalar Scenario2.node[175].nic.mac1609_4 	TotalLostPackets 	3117
scalar Scenario2.node[175].nic.mac1609_4 	DroppedPacketsInMac 	0
scalar Scenario2.node[175].nic.mac1609_4 	TooLittleTime 	0
scalar Scenario2.node[175].nic.mac1609_4 	TimesIntoBackoff 	391
scalar Scenario2.node[175].nic.mac1609_4 	SlotsBackoff 	605
scalar Scenario2.node[175].nic.mac1609_4 	NumInternalContention 	0
scalar Scenario2.node[175].nic.mac1609_4 	totalBusyTime 	4.829757157906
scalar Scenario2.node[175].veinsmobility 	startTime 	21
scalar Scenario2.node[175].veinsmobility 	totalTime 	39
scalar Scenario2.node[175].veinsmobility 	stopTime 	60
scalar Scenario2.node[175].veinsmobility 	minSpeed 	3.5815561515633
scalar Scenario2.node[175].veinsmobility 	maxSpeed 	18.991335381207
scalar Scenario2.node[175].veinsmobility 	totalDistance 	585.24651030782
scalar Scenario2.node[175].veinsmobility 	totalCO2Emission 	140.10945338174
scalar Scenario2.node[177].appl 	generatedWSMs 	1
scalar Scenario2.node[177].appl 	receivedWSMs 	2
scalar Scenario2.node[177].appl 	generatedBSMs 	380
scalar Scenario2.node[177].appl 	receivedBSMs 	42363
scalar Scenario2.node[177].appl 	generatedWSAs 	0
scalar Scenario2.node[177].appl 	receivedWSAs 	0
scalar Scenario2.node[177].appl 	delayWSM 	0.010801165279
scalar Scenario2.node[177].appl 	Dist_Propa 	788.83170114866
scalar Scenario2.node[177].nic.phy80211p 	busyTime 	0.12385494736844
scalar Scenario2.node[177].nic.phy80211p 	ncollisions 	1357
scalar Scenario2.node[177].nic.mac1609_4 	ReceivedUnicastPackets 	0
scalar Scenario2.node[177].nic.mac1609_4 	ReceivedBroadcasts 	42365
scalar Scenario2.node[177].nic.mac1609_4 	SentPackets 	381
scalar Scenario2.node[177].nic.mac1609_4 	SNIRLostPackets 	2854
scalar Scenario2.node[177].nic.mac1609_4 	RXTXLostPackets 	6
scalar Scenario2.node[177].nic.mac1609_4 	TotalLostPackets 	2860
scalar Scenario2.node[177].nic.mac1609_4 	DroppedPacketsInMac 	0
scalar Scenario2.node[177].nic.mac1609_4 	TooLittleTime 	0
scalar Scenario2.node[177].nic.mac1609_4 	TimesIntoBackoff 	381
scalar Scenario2.node[177].nic.mac1609_4 	SlotsBackoff 	568
scalar Scenario2.node[177].nic.mac1609_4 	NumInternalContention 	0
scalar Scenario2.node[177].nic.mac1609_4 	totalBusyTime 	4.588253406278
scalar Scenario2.node[177].veinsmobility 	startTime 	22
scalar Scenario2.node[177].veinsmobility 	totalTime 	38
scalar Scenario2.node[177].veinsmobility 	stopTime 	60
scalar Scenario2.node[177].veinsmobility 	minSpeed 	2.2529883940338
scalar Scenario2.node[177].veinsmobility 	maxSpeed 	18.999875641265
scalar Scenario2.node[177].veinsmobility 	totalDistance 	590.43950862395
scalar Scenario2.node[177].veinsmobility 	totalCO2Emission 	156.81212229586
