version 2
run WithoutChannelSwitching-TrAD-0-20180208-05:54:05-12267
attr configname WithoutChannelSwitching-TrAD
attr datetime 20180208-05:54:05
attr experiment WithoutChannelSwitching-TrAD
attr inifile omnetpp.ini
attr iterationvars ""
attr iterationvarsf ""
attr measurement ""
attr network Scenario2
attr processid 12267
attr repetition 0
attr replication #0
attr resultdir results
attr runnumber 0
attr seedset 0
param **.coreDebug false
param **.debug false
param *.**.nic.mac1609_4.bitrate 6Mbps
param *.**.nic.mac1609_4.txPower 20mW
param *.**.nic.mac1609_4.useServiceChannel false
param *.**.nic.phy80211p.analogueModels "xmldoc(\"config.xml\")"
param *.**.nic.phy80211p.antenna "xmldoc(\"antenna.xml\", \"/root/Antenna[@id='monopole']\")"
param *.**.nic.phy80211p.collectCollisionStatistics true
param *.**.nic.phy80211p.decider "xmldoc(\"config.xml\")"
param *.**.nic.phy80211p.sensitivity -89dBm
param *.**.nic.phy80211p.thermalNoise -110dBm
param *.**.nic.phy80211p.usePropagationDelay true
param *.**.nic.phy80211p.useThermalNoise true
param *.annotations.draw true
param *.connectionManager.drawMaxIntfDist false
param *.connectionManager.maxInterfDist 2600m
param *.connectionManager.sendDirect true
param *.manager.autoShutdown true
param *.manager.host "\"localhost\""
param *.manager.launchConfig "xmldoc(\"mycross.launchd.xml\")"
param *.manager.port 9999
param *.manager.updateInterval 1s
param *.node[*].appl.TrAD true
param *.node[*].appl.TrAD_Neig 25
param *.node[*].appl.TrAD_R 366
param *.node[*].appl.TrAD_alpha 10
param *.node[*].appl.TrAD_ti 0.005
param *.node[*].appl.beaconInterval 1s
param *.node[*].appl.dataOnSch false
param *.node[*].appl.headerLength "80 bit"
param *.node[*].appl.sendBeacons true
param *.node[*].applType "\"myWaveAppLayer\""
param *.node[*].veinsmobility.x 0
param *.node[*].veinsmobility.y 0
param *.node[*].veinsmobility.z 1.895
param *.node[*].veinsmobilityType.debug true
param *.node[20].appl.Accident_start 30
param *.node[40].veinsmobility.accidentCount 1
param *.node[40].veinsmobility.accidentDuration 40s
param *.node[40].veinsmobility.accidentStart 30s
param *.obstacles.debug false
param *.playgroundSizeX 2500m
param *.playgroundSizeY 2500m
param *.playgroundSizeZ 50m
param *.rsu[*].appl.beaconInterval 0.1s
param *.rsu[*].appl.beaconUserPriority 7
param *.rsu[*].appl.dataOnSch false
param *.rsu[*].appl.dataUserPriority 5
param *.rsu[*].appl.headerLength "80 bit"
param *.rsu[*].appl.sendBeacons false
param *.rsu[*].applType "\"TraCIDemoRSU11p\""
param *.rsu[0].mobility.x 500
param *.rsu[0].mobility.y 500
param *.rsu[0].mobility.z 3

vector 2  Scenario2.node[0].veinsmobility  posx  ETV
vector 3  Scenario2.node[0].veinsmobility  posy  ETV
vector 9  Scenario2.node[1].veinsmobility  posx  ETV
vector 10  Scenario2.node[1].veinsmobility  posy  ETV
vector 16  Scenario2.node[2].veinsmobility  posx  ETV
vector 17  Scenario2.node[2].veinsmobility  posy  ETV
vector 23  Scenario2.node[3].veinsmobility  posx  ETV
vector 24  Scenario2.node[3].veinsmobility  posy  ETV
vector 30  Scenario2.node[4].veinsmobility  posx  ETV
vector 31  Scenario2.node[4].veinsmobility  posy  ETV
vector 37  Scenario2.node[5].veinsmobility  posx  ETV
vector 38  Scenario2.node[5].veinsmobility  posy  ETV
vector 44  Scenario2.node[6].veinsmobility  posx  ETV
vector 45  Scenario2.node[6].veinsmobility  posy  ETV
vector 51  Scenario2.node[7].veinsmobility  posx  ETV
vector 52  Scenario2.node[7].veinsmobility  posy  ETV
vector 58  Scenario2.node[8].veinsmobility  posx  ETV
vector 59  Scenario2.node[8].veinsmobility  posy  ETV
vector 65  Scenario2.node[9].veinsmobility  posx  ETV
vector 66  Scenario2.node[9].veinsmobility  posy  ETV
vector 72  Scenario2.node[10].veinsmobility  posx  ETV
vector 73  Scenario2.node[10].veinsmobility  posy  ETV
vector 79  Scenario2.node[11].veinsmobility  posx  ETV
vector 80  Scenario2.node[11].veinsmobility  posy  ETV
vector 86  Scenario2.node[12].veinsmobility  posx  ETV
vector 87  Scenario2.node[12].veinsmobility  posy  ETV
vector 93  Scenario2.node[13].veinsmobility  posx  ETV
vector 94  Scenario2.node[13].veinsmobility  posy  ETV
vector 100  Scenario2.node[14].veinsmobility  posx  ETV
vector 101  Scenario2.node[14].veinsmobility  posy  ETV
vector 107  Scenario2.node[15].veinsmobility  posx  ETV
vector 108  Scenario2.node[15].veinsmobility  posy  ETV
vector 114  Scenario2.node[16].veinsmobility  posx  ETV
vector 115  Scenario2.node[16].veinsmobility  posy  ETV
vector 121  Scenario2.node[17].veinsmobility  posx  ETV
vector 122  Scenario2.node[17].veinsmobility  posy  ETV
vector 128  Scenario2.node[18].veinsmobility  posx  ETV
vector 129  Scenario2.node[18].veinsmobility  posy  ETV
vector 135  Scenario2.node[19].veinsmobility  posx  ETV
vector 136  Scenario2.node[19].veinsmobility  posy  ETV
vector 142  Scenario2.node[20].veinsmobility  posx  ETV
vector 143  Scenario2.node[20].veinsmobility  posy  ETV
vector 149  Scenario2.node[21].veinsmobility  posx  ETV
vector 150  Scenario2.node[21].veinsmobility  posy  ETV
vector 156  Scenario2.node[22].veinsmobility  posx  ETV
vector 157  Scenario2.node[22].veinsmobility  posy  ETV
vector 163  Scenario2.node[23].veinsmobility  posx  ETV
vector 164  Scenario2.node[23].veinsmobility  posy  ETV
vector 170  Scenario2.node[24].veinsmobility  posx  ETV
vector 171  Scenario2.node[24].veinsmobility  posy  ETV
vector 177  Scenario2.node[25].veinsmobility  posx  ETV
vector 178  Scenario2.node[25].veinsmobility  posy  ETV
vector 184  Scenario2.node[26].veinsmobility  posx  ETV
vector 185  Scenario2.node[26].veinsmobility  posy  ETV
vector 191  Scenario2.node[27].veinsmobility  posx  ETV
vector 192  Scenario2.node[27].veinsmobility  posy  ETV
vector 198  Scenario2.node[28].veinsmobility  posx  ETV
vector 199  Scenario2.node[28].veinsmobility  posy  ETV
vector 205  Scenario2.node[29].veinsmobility  posx  ETV
vector 206  Scenario2.node[29].veinsmobility  posy  ETV
vector 212  Scenario2.node[30].veinsmobility  posx  ETV
vector 213  Scenario2.node[30].veinsmobility  posy  ETV
vector 219  Scenario2.node[31].veinsmobility  posx  ETV
vector 220  Scenario2.node[31].veinsmobility  posy  ETV
vector 226  Scenario2.node[32].veinsmobility  posx  ETV
vector 227  Scenario2.node[32].veinsmobility  posy  ETV
vector 233  Scenario2.node[33].veinsmobility  posx  ETV
vector 234  Scenario2.node[33].veinsmobility  posy  ETV
vector 240  Scenario2.node[34].veinsmobility  posx  ETV
vector 241  Scenario2.node[34].veinsmobility  posy  ETV
vector 247  Scenario2.node[35].veinsmobility  posx  ETV
vector 248  Scenario2.node[35].veinsmobility  posy  ETV
vector 254  Scenario2.node[36].veinsmobility  posx  ETV
vector 255  Scenario2.node[36].veinsmobility  posy  ETV
vector 261  Scenario2.node[37].veinsmobility  posx  ETV
vector 262  Scenario2.node[37].veinsmobility  posy  ETV
vector 268  Scenario2.node[38].veinsmobility  posx  ETV
vector 269  Scenario2.node[38].veinsmobility  posy  ETV
vector 275  Scenario2.node[39].veinsmobility  posx  ETV
vector 276  Scenario2.node[39].veinsmobility  posy  ETV
vector 282  Scenario2.node[40].veinsmobility  posx  ETV
vector 283  Scenario2.node[40].veinsmobility  posy  ETV
vector 289  Scenario2.node[41].veinsmobility  posx  ETV
vector 290  Scenario2.node[41].veinsmobility  posy  ETV
vector 296  Scenario2.node[42].veinsmobility  posx  ETV
vector 297  Scenario2.node[42].veinsmobility  posy  ETV
vector 303  Scenario2.node[43].veinsmobility  posx  ETV
vector 304  Scenario2.node[43].veinsmobility  posy  ETV
vector 310  Scenario2.node[44].veinsmobility  posx  ETV
vector 311  Scenario2.node[44].veinsmobility  posy  ETV
vector 317  Scenario2.node[45].veinsmobility  posx  ETV
vector 318  Scenario2.node[45].veinsmobility  posy  ETV
vector 324  Scenario2.node[46].veinsmobility  posx  ETV
vector 325  Scenario2.node[46].veinsmobility  posy  ETV
vector 331  Scenario2.node[47].veinsmobility  posx  ETV
vector 332  Scenario2.node[47].veinsmobility  posy  ETV
vector 338  Scenario2.node[48].veinsmobility  posx  ETV
vector 339  Scenario2.node[48].veinsmobility  posy  ETV
vector 345  Scenario2.node[49].veinsmobility  posx  ETV
vector 346  Scenario2.node[49].veinsmobility  posy  ETV
vector 352  Scenario2.node[50].veinsmobility  posx  ETV
vector 353  Scenario2.node[50].veinsmobility  posy  ETV
vector 359  Scenario2.node[51].veinsmobility  posx  ETV
vector 360  Scenario2.node[51].veinsmobility  posy  ETV
vector 366  Scenario2.node[52].veinsmobility  posx  ETV
vector 367  Scenario2.node[52].veinsmobility  posy  ETV
vector 373  Scenario2.node[53].veinsmobility  posx  ETV
vector 374  Scenario2.node[53].veinsmobility  posy  ETV
vector 380  Scenario2.node[54].veinsmobility  posx  ETV
vector 381  Scenario2.node[54].veinsmobility  posy  ETV
vector 387  Scenario2.node[55].veinsmobility  posx  ETV
vector 388  Scenario2.node[55].veinsmobility  posy  ETV
vector 394  Scenario2.node[56].veinsmobility  posx  ETV
vector 395  Scenario2.node[56].veinsmobility  posy  ETV
vector 401  Scenario2.node[57].veinsmobility  posx  ETV
vector 402  Scenario2.node[57].veinsmobility  posy  ETV
vector 408  Scenario2.node[58].veinsmobility  posx  ETV
vector 409  Scenario2.node[58].veinsmobility  posy  ETV
vector 415  Scenario2.node[59].veinsmobility  posx  ETV
vector 416  Scenario2.node[59].veinsmobility  posy  ETV
vector 422  Scenario2.node[60].veinsmobility  posx  ETV
vector 423  Scenario2.node[60].veinsmobility  posy  ETV
vector 429  Scenario2.node[61].veinsmobility  posx  ETV
vector 430  Scenario2.node[61].veinsmobility  posy  ETV
vector 436  Scenario2.node[62].veinsmobility  posx  ETV
vector 437  Scenario2.node[62].veinsmobility  posy  ETV
vector 443  Scenario2.node[63].veinsmobility  posx  ETV
vector 444  Scenario2.node[63].veinsmobility  posy  ETV
vector 450  Scenario2.node[64].veinsmobility  posx  ETV
vector 451  Scenario2.node[64].veinsmobility  posy  ETV
vector 457  Scenario2.node[65].veinsmobility  posx  ETV
vector 458  Scenario2.node[65].veinsmobility  posy  ETV
vector 464  Scenario2.node[66].veinsmobility  posx  ETV
vector 465  Scenario2.node[66].veinsmobility  posy  ETV
vector 471  Scenario2.node[67].veinsmobility  posx  ETV
vector 472  Scenario2.node[67].veinsmobility  posy  ETV
vector 478  Scenario2.node[68].veinsmobility  posx  ETV
vector 479  Scenario2.node[68].veinsmobility  posy  ETV
vector 485  Scenario2.node[69].veinsmobility  posx  ETV
vector 486  Scenario2.node[69].veinsmobility  posy  ETV
vector 492  Scenario2.node[70].veinsmobility  posx  ETV
vector 493  Scenario2.node[70].veinsmobility  posy  ETV
vector 499  Scenario2.node[71].veinsmobility  posx  ETV
vector 500  Scenario2.node[71].veinsmobility  posy  ETV
vector 4  Scenario2.node[0].veinsmobility  speed  ETV
vector 11  Scenario2.node[1].veinsmobility  speed  ETV
vector 18  Scenario2.node[2].veinsmobility  speed  ETV
vector 25  Scenario2.node[3].veinsmobility  speed  ETV
vector 32  Scenario2.node[4].veinsmobility  speed  ETV
vector 39  Scenario2.node[5].veinsmobility  speed  ETV
vector 46  Scenario2.node[6].veinsmobility  speed  ETV
vector 53  Scenario2.node[7].veinsmobility  speed  ETV
vector 60  Scenario2.node[8].veinsmobility  speed  ETV
vector 67  Scenario2.node[9].veinsmobility  speed  ETV
vector 74  Scenario2.node[10].veinsmobility  speed  ETV
vector 81  Scenario2.node[11].veinsmobility  speed  ETV
vector 88  Scenario2.node[12].veinsmobility  speed  ETV
vector 95  Scenario2.node[13].veinsmobility  speed  ETV
vector 102  Scenario2.node[14].veinsmobility  speed  ETV
vector 109  Scenario2.node[15].veinsmobility  speed  ETV
vector 116  Scenario2.node[16].veinsmobility  speed  ETV
vector 123  Scenario2.node[17].veinsmobility  speed  ETV
vector 130  Scenario2.node[18].veinsmobility  speed  ETV
vector 137  Scenario2.node[19].veinsmobility  speed  ETV
vector 144  Scenario2.node[20].veinsmobility  speed  ETV
vector 151  Scenario2.node[21].veinsmobility  speed  ETV
vector 158  Scenario2.node[22].veinsmobility  speed  ETV
vector 165  Scenario2.node[23].veinsmobility  speed  ETV
vector 172  Scenario2.node[24].veinsmobility  speed  ETV
vector 179  Scenario2.node[25].veinsmobility  speed  ETV
vector 186  Scenario2.node[26].veinsmobility  speed  ETV
vector 193  Scenario2.node[27].veinsmobility  speed  ETV
vector 200  Scenario2.node[28].veinsmobility  speed  ETV
vector 207  Scenario2.node[29].veinsmobility  speed  ETV
vector 214  Scenario2.node[30].veinsmobility  speed  ETV
vector 221  Scenario2.node[31].veinsmobility  speed  ETV
vector 228  Scenario2.node[32].veinsmobility  speed  ETV
vector 235  Scenario2.node[33].veinsmobility  speed  ETV
vector 242  Scenario2.node[34].veinsmobility  speed  ETV
vector 249  Scenario2.node[35].veinsmobility  speed  ETV
vector 256  Scenario2.node[36].veinsmobility  speed  ETV
vector 263  Scenario2.node[37].veinsmobility  speed  ETV
vector 270  Scenario2.node[38].veinsmobility  speed  ETV
vector 277  Scenario2.node[39].veinsmobility  speed  ETV
vector 284  Scenario2.node[40].veinsmobility  speed  ETV
vector 291  Scenario2.node[41].veinsmobility  speed  ETV
vector 298  Scenario2.node[42].veinsmobility  speed  ETV
vector 305  Scenario2.node[43].veinsmobility  speed  ETV
vector 312  Scenario2.node[44].veinsmobility  speed  ETV
vector 319  Scenario2.node[45].veinsmobility  speed  ETV
vector 326  Scenario2.node[46].veinsmobility  speed  ETV
vector 506  Scenario2.node[72].veinsmobility  posx  ETV
vector 507  Scenario2.node[72].veinsmobility  posy  ETV
vector 513  Scenario2.node[73].veinsmobility  posx  ETV
vector 514  Scenario2.node[73].veinsmobility  posy  ETV
vector 520  Scenario2.node[74].veinsmobility  posx  ETV
vector 521  Scenario2.node[74].veinsmobility  posy  ETV
vector 527  Scenario2.node[75].veinsmobility  posx  ETV
vector 528  Scenario2.node[75].veinsmobility  posy  ETV
vector 534  Scenario2.node[76].veinsmobility  posx  ETV
vector 535  Scenario2.node[76].veinsmobility  posy  ETV
vector 541  Scenario2.node[77].veinsmobility  posx  ETV
vector 542  Scenario2.node[77].veinsmobility  posy  ETV
vector 548  Scenario2.node[78].veinsmobility  posx  ETV
vector 549  Scenario2.node[78].veinsmobility  posy  ETV
vector 555  Scenario2.node[79].veinsmobility  posx  ETV
vector 556  Scenario2.node[79].veinsmobility  posy  ETV
vector 5  Scenario2.node[0].veinsmobility  acceleration  ETV
vector 6  Scenario2.node[0].veinsmobility  co2emission  ETV
vector 12  Scenario2.node[1].veinsmobility  acceleration  ETV
vector 13  Scenario2.node[1].veinsmobility  co2emission  ETV
vector 19  Scenario2.node[2].veinsmobility  acceleration  ETV
vector 20  Scenario2.node[2].veinsmobility  co2emission  ETV
vector 26  Scenario2.node[3].veinsmobility  acceleration  ETV
vector 27  Scenario2.node[3].veinsmobility  co2emission  ETV
vector 33  Scenario2.node[4].veinsmobility  acceleration  ETV
vector 34  Scenario2.node[4].veinsmobility  co2emission  ETV
vector 40  Scenario2.node[5].veinsmobility  acceleration  ETV
vector 41  Scenario2.node[5].veinsmobility  co2emission  ETV
vector 47  Scenario2.node[6].veinsmobility  acceleration  ETV
vector 48  Scenario2.node[6].veinsmobility  co2emission  ETV
vector 54  Scenario2.node[7].veinsmobility  acceleration  ETV
vector 55  Scenario2.node[7].veinsmobility  co2emission  ETV
vector 61  Scenario2.node[8].veinsmobility  acceleration  ETV
vector 62  Scenario2.node[8].veinsmobility  co2emission  ETV
vector 68  Scenario2.node[9].veinsmobility  acceleration  ETV
vector 69  Scenario2.node[9].veinsmobility  co2emission  ETV
vector 75  Scenario2.node[10].veinsmobility  acceleration  ETV
vector 76  Scenario2.node[10].veinsmobility  co2emission  ETV
vector 82  Scenario2.node[11].veinsmobility  acceleration  ETV
vector 83  Scenario2.node[11].veinsmobility  co2emission  ETV
vector 89  Scenario2.node[12].veinsmobility  acceleration  ETV
vector 90  Scenario2.node[12].veinsmobility  co2emission  ETV
vector 96  Scenario2.node[13].veinsmobility  acceleration  ETV
vector 97  Scenario2.node[13].veinsmobility  co2emission  ETV
vector 103  Scenario2.node[14].veinsmobility  acceleration  ETV
vector 104  Scenario2.node[14].veinsmobility  co2emission  ETV
vector 110  Scenario2.node[15].veinsmobility  acceleration  ETV
vector 111  Scenario2.node[15].veinsmobility  co2emission  ETV
vector 117  Scenario2.node[16].veinsmobility  acceleration  ETV
vector 118  Scenario2.node[16].veinsmobility  co2emission  ETV
vector 124  Scenario2.node[17].veinsmobility  acceleration  ETV
vector 125  Scenario2.node[17].veinsmobility  co2emission  ETV
vector 131  Scenario2.node[18].veinsmobility  acceleration  ETV
vector 132  Scenario2.node[18].veinsmobility  co2emission  ETV
vector 138  Scenario2.node[19].veinsmobility  acceleration  ETV
vector 139  Scenario2.node[19].veinsmobility  co2emission  ETV
vector 145  Scenario2.node[20].veinsmobility  acceleration  ETV
vector 146  Scenario2.node[20].veinsmobility  co2emission  ETV
vector 152  Scenario2.node[21].veinsmobility  acceleration  ETV
vector 153  Scenario2.node[21].veinsmobility  co2emission  ETV
vector 159  Scenario2.node[22].veinsmobility  acceleration  ETV
vector 160  Scenario2.node[22].veinsmobility  co2emission  ETV
vector 166  Scenario2.node[23].veinsmobility  acceleration  ETV
vector 167  Scenario2.node[23].veinsmobility  co2emission  ETV
vector 173  Scenario2.node[24].veinsmobility  acceleration  ETV
vector 174  Scenario2.node[24].veinsmobility  co2emission  ETV
vector 180  Scenario2.node[25].veinsmobility  acceleration  ETV
vector 181  Scenario2.node[25].veinsmobility  co2emission  ETV
vector 187  Scenario2.node[26].veinsmobility  acceleration  ETV
vector 188  Scenario2.node[26].veinsmobility  co2emission  ETV
vector 194  Scenario2.node[27].veinsmobility  acceleration  ETV
vector 195  Scenario2.node[27].veinsmobility  co2emission  ETV
vector 201  Scenario2.node[28].veinsmobility  acceleration  ETV
vector 202  Scenario2.node[28].veinsmobility  co2emission  ETV
vector 208  Scenario2.node[29].veinsmobility  acceleration  ETV
vector 209  Scenario2.node[29].veinsmobility  co2emission  ETV
vector 215  Scenario2.node[30].veinsmobility  acceleration  ETV
vector 216  Scenario2.node[30].veinsmobility  co2emission  ETV
vector 222  Scenario2.node[31].veinsmobility  acceleration  ETV
vector 223  Scenario2.node[31].veinsmobility  co2emission  ETV
vector 229  Scenario2.node[32].veinsmobility  acceleration  ETV
vector 230  Scenario2.node[32].veinsmobility  co2emission  ETV
vector 236  Scenario2.node[33].veinsmobility  acceleration  ETV
vector 237  Scenario2.node[33].veinsmobility  co2emission  ETV
vector 243  Scenario2.node[34].veinsmobility  acceleration  ETV
vector 244  Scenario2.node[34].veinsmobility  co2emission  ETV
vector 250  Scenario2.node[35].veinsmobility  acceleration  ETV
vector 251  Scenario2.node[35].veinsmobility  co2emission  ETV
vector 257  Scenario2.node[36].veinsmobility  acceleration  ETV
vector 258  Scenario2.node[36].veinsmobility  co2emission  ETV
vector 264  Scenario2.node[37].veinsmobility  acceleration  ETV
vector 265  Scenario2.node[37].veinsmobility  co2emission  ETV
vector 271  Scenario2.node[38].veinsmobility  acceleration  ETV
vector 272  Scenario2.node[38].veinsmobility  co2emission  ETV
vector 278  Scenario2.node[39].veinsmobility  acceleration  ETV
vector 279  Scenario2.node[39].veinsmobility  co2emission  ETV
vector 285  Scenario2.node[40].veinsmobility  acceleration  ETV
vector 286  Scenario2.node[40].veinsmobility  co2emission  ETV
vector 292  Scenario2.node[41].veinsmobility  acceleration  ETV
vector 293  Scenario2.node[41].veinsmobility  co2emission  ETV
vector 299  Scenario2.node[42].veinsmobility  acceleration  ETV
vector 300  Scenario2.node[42].veinsmobility  co2emission  ETV
vector 306  Scenario2.node[43].veinsmobility  acceleration  ETV
vector 307  Scenario2.node[43].veinsmobility  co2emission  ETV
vector 313  Scenario2.node[44].veinsmobility  acceleration  ETV
vector 314  Scenario2.node[44].veinsmobility  co2emission  ETV
vector 320  Scenario2.node[45].veinsmobility  acceleration  ETV
vector 321  Scenario2.node[45].veinsmobility  co2emission  ETV
vector 327  Scenario2.node[46].veinsmobility  acceleration  ETV
vector 328  Scenario2.node[46].veinsmobility  co2emission  ETV
vector 333  Scenario2.node[47].veinsmobility  speed  ETV
vector 340  Scenario2.node[48].veinsmobility  speed  ETV
vector 347  Scenario2.node[49].veinsmobility  speed  ETV
vector 354  Scenario2.node[50].veinsmobility  speed  ETV
vector 361  Scenario2.node[51].veinsmobility  speed  ETV
vector 368  Scenario2.node[52].veinsmobility  speed  ETV
vector 375  Scenario2.node[53].veinsmobility  speed  ETV
vector 382  Scenario2.node[54].veinsmobility  speed  ETV
vector 389  Scenario2.node[55].veinsmobility  speed  ETV
vector 396  Scenario2.node[56].veinsmobility  speed  ETV
vector 403  Scenario2.node[57].veinsmobility  speed  ETV
vector 410  Scenario2.node[58].veinsmobility  speed  ETV
vector 417  Scenario2.node[59].veinsmobility  speed  ETV
vector 424  Scenario2.node[60].veinsmobility  speed  ETV
vector 431  Scenario2.node[61].veinsmobility  speed  ETV
vector 438  Scenario2.node[62].veinsmobility  speed  ETV
vector 445  Scenario2.node[63].veinsmobility  speed  ETV
vector 452  Scenario2.node[64].veinsmobility  speed  ETV
vector 459  Scenario2.node[65].veinsmobility  speed  ETV
vector 466  Scenario2.node[66].veinsmobility  speed  ETV
vector 473  Scenario2.node[67].veinsmobility  speed  ETV
vector 480  Scenario2.node[68].veinsmobility  speed  ETV
vector 487  Scenario2.node[69].veinsmobility  speed  ETV
vector 494  Scenario2.node[70].veinsmobility  speed  ETV
vector 501  Scenario2.node[71].veinsmobility  speed  ETV
vector 562  Scenario2.node[80].veinsmobility  posx  ETV
vector 563  Scenario2.node[80].veinsmobility  posy  ETV
vector 569  Scenario2.node[81].veinsmobility  posx  ETV
vector 570  Scenario2.node[81].veinsmobility  posy  ETV
vector 576  Scenario2.node[82].veinsmobility  posx  ETV
vector 577  Scenario2.node[82].veinsmobility  posy  ETV
vector 583  Scenario2.node[83].veinsmobility  posx  ETV
vector 584  Scenario2.node[83].veinsmobility  posy  ETV
vector 590  Scenario2.node[84].veinsmobility  posx  ETV
vector 591  Scenario2.node[84].veinsmobility  posy  ETV
vector 597  Scenario2.node[85].veinsmobility  posx  ETV
vector 598  Scenario2.node[85].veinsmobility  posy  ETV
vector 334  Scenario2.node[47].veinsmobility  acceleration  ETV
vector 335  Scenario2.node[47].veinsmobility  co2emission  ETV
vector 341  Scenario2.node[48].veinsmobility  acceleration  ETV
vector 342  Scenario2.node[48].veinsmobility  co2emission  ETV
vector 348  Scenario2.node[49].veinsmobility  acceleration  ETV
vector 349  Scenario2.node[49].veinsmobility  co2emission  ETV
vector 355  Scenario2.node[50].veinsmobility  acceleration  ETV
vector 356  Scenario2.node[50].veinsmobility  co2emission  ETV
vector 362  Scenario2.node[51].veinsmobility  acceleration  ETV
vector 363  Scenario2.node[51].veinsmobility  co2emission  ETV
vector 369  Scenario2.node[52].veinsmobility  acceleration  ETV
vector 370  Scenario2.node[52].veinsmobility  co2emission  ETV
vector 376  Scenario2.node[53].veinsmobility  acceleration  ETV
vector 377  Scenario2.node[53].veinsmobility  co2emission  ETV
vector 383  Scenario2.node[54].veinsmobility  acceleration  ETV
vector 384  Scenario2.node[54].veinsmobility  co2emission  ETV
vector 390  Scenario2.node[55].veinsmobility  acceleration  ETV
vector 391  Scenario2.node[55].veinsmobility  co2emission  ETV
vector 397  Scenario2.node[56].veinsmobility  acceleration  ETV
vector 398  Scenario2.node[56].veinsmobility  co2emission  ETV
vector 404  Scenario2.node[57].veinsmobility  acceleration  ETV
vector 405  Scenario2.node[57].veinsmobility  co2emission  ETV
vector 411  Scenario2.node[58].veinsmobility  acceleration  ETV
vector 412  Scenario2.node[58].veinsmobility  co2emission  ETV
vector 418  Scenario2.node[59].veinsmobility  acceleration  ETV
vector 419  Scenario2.node[59].veinsmobility  co2emission  ETV
vector 425  Scenario2.node[60].veinsmobility  acceleration  ETV
vector 426  Scenario2.node[60].veinsmobility  co2emission  ETV
vector 432  Scenario2.node[61].veinsmobility  acceleration  ETV
vector 433  Scenario2.node[61].veinsmobility  co2emission  ETV
vector 439  Scenario2.node[62].veinsmobility  acceleration  ETV
vector 440  Scenario2.node[62].veinsmobility  co2emission  ETV
vector 446  Scenario2.node[63].veinsmobility  acceleration  ETV
vector 447  Scenario2.node[63].veinsmobility  co2emission  ETV
vector 453  Scenario2.node[64].veinsmobility  acceleration  ETV
vector 454  Scenario2.node[64].veinsmobility  co2emission  ETV
vector 460  Scenario2.node[65].veinsmobility  acceleration  ETV
vector 461  Scenario2.node[65].veinsmobility  co2emission  ETV
vector 467  Scenario2.node[66].veinsmobility  acceleration  ETV
vector 468  Scenario2.node[66].veinsmobility  co2emission  ETV
vector 474  Scenario2.node[67].veinsmobility  acceleration  ETV
vector 475  Scenario2.node[67].veinsmobility  co2emission  ETV
vector 481  Scenario2.node[68].veinsmobility  acceleration  ETV
vector 482  Scenario2.node[68].veinsmobility  co2emission  ETV
vector 488  Scenario2.node[69].veinsmobility  acceleration  ETV
vector 489  Scenario2.node[69].veinsmobility  co2emission  ETV
vector 495  Scenario2.node[70].veinsmobility  acceleration  ETV
vector 496  Scenario2.node[70].veinsmobility  co2emission  ETV
vector 502  Scenario2.node[71].veinsmobility  acceleration  ETV
vector 503  Scenario2.node[71].veinsmobility  co2emission  ETV
vector 508  Scenario2.node[72].veinsmobility  speed  ETV
vector 515  Scenario2.node[73].veinsmobility  speed  ETV
vector 522  Scenario2.node[74].veinsmobility  speed  ETV
vector 529  Scenario2.node[75].veinsmobility  speed  ETV
vector 536  Scenario2.node[76].veinsmobility  speed  ETV
vector 543  Scenario2.node[77].veinsmobility  speed  ETV
vector 550  Scenario2.node[78].veinsmobility  speed  ETV
vector 557  Scenario2.node[79].veinsmobility  speed  ETV
vector 604  Scenario2.node[86].veinsmobility  posx  ETV
vector 605  Scenario2.node[86].veinsmobility  posy  ETV
vector 611  Scenario2.node[87].veinsmobility  posx  ETV
vector 612  Scenario2.node[87].veinsmobility  posy  ETV
vector 618  Scenario2.node[88].veinsmobility  posx  ETV
vector 619  Scenario2.node[88].veinsmobility  posy  ETV
vector 625  Scenario2.node[89].veinsmobility  posx  ETV
vector 626  Scenario2.node[89].veinsmobility  posy  ETV
vector 632  Scenario2.node[90].veinsmobility  posx  ETV
vector 633  Scenario2.node[90].veinsmobility  posy  ETV
vector 509  Scenario2.node[72].veinsmobility  acceleration  ETV
vector 510  Scenario2.node[72].veinsmobility  co2emission  ETV
vector 516  Scenario2.node[73].veinsmobility  acceleration  ETV
vector 517  Scenario2.node[73].veinsmobility  co2emission  ETV
vector 523  Scenario2.node[74].veinsmobility  acceleration  ETV
vector 524  Scenario2.node[74].veinsmobility  co2emission  ETV
vector 530  Scenario2.node[75].veinsmobility  acceleration  ETV
vector 531  Scenario2.node[75].veinsmobility  co2emission  ETV
vector 537  Scenario2.node[76].veinsmobility  acceleration  ETV
vector 538  Scenario2.node[76].veinsmobility  co2emission  ETV
vector 544  Scenario2.node[77].veinsmobility  acceleration  ETV
vector 545  Scenario2.node[77].veinsmobility  co2emission  ETV
vector 551  Scenario2.node[78].veinsmobility  acceleration  ETV
vector 552  Scenario2.node[78].veinsmobility  co2emission  ETV
vector 558  Scenario2.node[79].veinsmobility  acceleration  ETV
vector 559  Scenario2.node[79].veinsmobility  co2emission  ETV
vector 564  Scenario2.node[80].veinsmobility  speed  ETV
vector 571  Scenario2.node[81].veinsmobility  speed  ETV
vector 578  Scenario2.node[82].veinsmobility  speed  ETV
vector 585  Scenario2.node[83].veinsmobility  speed  ETV
vector 592  Scenario2.node[84].veinsmobility  speed  ETV
vector 599  Scenario2.node[85].veinsmobility  speed  ETV
vector 639  Scenario2.node[91].veinsmobility  posx  ETV
vector 640  Scenario2.node[91].veinsmobility  posy  ETV
vector 646  Scenario2.node[92].veinsmobility  posx  ETV
vector 647  Scenario2.node[92].veinsmobility  posy  ETV
vector 653  Scenario2.node[93].veinsmobility  posx  ETV
vector 654  Scenario2.node[93].veinsmobility  posy  ETV
vector 660  Scenario2.node[94].veinsmobility  posx  ETV
vector 661  Scenario2.node[94].veinsmobility  posy  ETV
vector 667  Scenario2.node[95].veinsmobility  posx  ETV
vector 668  Scenario2.node[95].veinsmobility  posy  ETV
vector 674  Scenario2.node[96].veinsmobility  posx  ETV
vector 675  Scenario2.node[96].veinsmobility  posy  ETV
vector 681  Scenario2.node[97].veinsmobility  posx  ETV
vector 682  Scenario2.node[97].veinsmobility  posy  ETV
vector 565  Scenario2.node[80].veinsmobility  acceleration  ETV
vector 566  Scenario2.node[80].veinsmobility  co2emission  ETV
vector 572  Scenario2.node[81].veinsmobility  acceleration  ETV
vector 573  Scenario2.node[81].veinsmobility  co2emission  ETV
vector 579  Scenario2.node[82].veinsmobility  acceleration  ETV
vector 580  Scenario2.node[82].veinsmobility  co2emission  ETV
vector 586  Scenario2.node[83].veinsmobility  acceleration  ETV
vector 587  Scenario2.node[83].veinsmobility  co2emission  ETV
vector 593  Scenario2.node[84].veinsmobility  acceleration  ETV
vector 594  Scenario2.node[84].veinsmobility  co2emission  ETV
vector 600  Scenario2.node[85].veinsmobility  acceleration  ETV
vector 601  Scenario2.node[85].veinsmobility  co2emission  ETV
vector 606  Scenario2.node[86].veinsmobility  speed  ETV
vector 613  Scenario2.node[87].veinsmobility  speed  ETV
vector 620  Scenario2.node[88].veinsmobility  speed  ETV
vector 627  Scenario2.node[89].veinsmobility  speed  ETV
vector 634  Scenario2.node[90].veinsmobility  speed  ETV
vector 688  Scenario2.node[98].veinsmobility  posx  ETV
vector 689  Scenario2.node[98].veinsmobility  posy  ETV
vector 695  Scenario2.node[99].veinsmobility  posx  ETV
vector 696  Scenario2.node[99].veinsmobility  posy  ETV
vector 702  Scenario2.node[100].veinsmobility  posx  ETV
vector 703  Scenario2.node[100].veinsmobility  posy  ETV
vector 709  Scenario2.node[101].veinsmobility  posx  ETV
vector 710  Scenario2.node[101].veinsmobility  posy  ETV
vector 716  Scenario2.node[102].veinsmobility  posx  ETV
vector 717  Scenario2.node[102].veinsmobility  posy  ETV
vector 723  Scenario2.node[103].veinsmobility  posx  ETV
vector 724  Scenario2.node[103].veinsmobility  posy  ETV
vector 730  Scenario2.node[104].veinsmobility  posx  ETV
vector 731  Scenario2.node[104].veinsmobility  posy  ETV
vector 737  Scenario2.node[105].veinsmobility  posx  ETV
vector 738  Scenario2.node[105].veinsmobility  posy  ETV
vector 744  Scenario2.node[106].veinsmobility  posx  ETV
vector 745  Scenario2.node[106].veinsmobility  posy  ETV
vector 607  Scenario2.node[86].veinsmobility  acceleration  ETV
vector 608  Scenario2.node[86].veinsmobility  co2emission  ETV
vector 614  Scenario2.node[87].veinsmobility  acceleration  ETV
vector 615  Scenario2.node[87].veinsmobility  co2emission  ETV
vector 621  Scenario2.node[88].veinsmobility  acceleration  ETV
vector 622  Scenario2.node[88].veinsmobility  co2emission  ETV
vector 628  Scenario2.node[89].veinsmobility  acceleration  ETV
vector 629  Scenario2.node[89].veinsmobility  co2emission  ETV
vector 635  Scenario2.node[90].veinsmobility  acceleration  ETV
vector 636  Scenario2.node[90].veinsmobility  co2emission  ETV
vector 641  Scenario2.node[91].veinsmobility  speed  ETV
vector 648  Scenario2.node[92].veinsmobility  speed  ETV
vector 655  Scenario2.node[93].veinsmobility  speed  ETV
vector 662  Scenario2.node[94].veinsmobility  speed  ETV
vector 669  Scenario2.node[95].veinsmobility  speed  ETV
vector 676  Scenario2.node[96].veinsmobility  speed  ETV
vector 683  Scenario2.node[97].veinsmobility  speed  ETV
vector 751  Scenario2.node[107].veinsmobility  posx  ETV
vector 752  Scenario2.node[107].veinsmobility  posy  ETV
vector 758  Scenario2.node[108].veinsmobility  posx  ETV
vector 759  Scenario2.node[108].veinsmobility  posy  ETV
vector 765  Scenario2.node[109].veinsmobility  posx  ETV
vector 766  Scenario2.node[109].veinsmobility  posy  ETV
vector 772  Scenario2.node[110].veinsmobility  posx  ETV
vector 773  Scenario2.node[110].veinsmobility  posy  ETV
vector 779  Scenario2.node[111].veinsmobility  posx  ETV
vector 780  Scenario2.node[111].veinsmobility  posy  ETV
vector 786  Scenario2.node[112].veinsmobility  posx  ETV
vector 787  Scenario2.node[112].veinsmobility  posy  ETV
vector 793  Scenario2.node[113].veinsmobility  posx  ETV
vector 794  Scenario2.node[113].veinsmobility  posy  ETV
vector 800  Scenario2.node[114].veinsmobility  posx  ETV
vector 801  Scenario2.node[114].veinsmobility  posy  ETV
vector 642  Scenario2.node[91].veinsmobility  acceleration  ETV
vector 643  Scenario2.node[91].veinsmobility  co2emission  ETV
vector 649  Scenario2.node[92].veinsmobility  acceleration  ETV
vector 650  Scenario2.node[92].veinsmobility  co2emission  ETV
vector 656  Scenario2.node[93].veinsmobility  acceleration  ETV
vector 657  Scenario2.node[93].veinsmobility  co2emission  ETV
vector 663  Scenario2.node[94].veinsmobility  acceleration  ETV
vector 664  Scenario2.node[94].veinsmobility  co2emission  ETV
vector 670  Scenario2.node[95].veinsmobility  acceleration  ETV
vector 671  Scenario2.node[95].veinsmobility  co2emission  ETV
vector 677  Scenario2.node[96].veinsmobility  acceleration  ETV
vector 678  Scenario2.node[96].veinsmobility  co2emission  ETV
vector 684  Scenario2.node[97].veinsmobility  acceleration  ETV
vector 685  Scenario2.node[97].veinsmobility  co2emission  ETV
vector 690  Scenario2.node[98].veinsmobility  speed  ETV
vector 697  Scenario2.node[99].veinsmobility  speed  ETV
vector 704  Scenario2.node[100].veinsmobility  speed  ETV
vector 711  Scenario2.node[101].veinsmobility  speed  ETV
vector 718  Scenario2.node[102].veinsmobility  speed  ETV
vector 725  Scenario2.node[103].veinsmobility  speed  ETV
vector 732  Scenario2.node[104].veinsmobility  speed  ETV
vector 739  Scenario2.node[105].veinsmobility  speed  ETV
vector 746  Scenario2.node[106].veinsmobility  speed  ETV
vector 807  Scenario2.node[115].veinsmobility  posx  ETV
vector 808  Scenario2.node[115].veinsmobility  posy  ETV
vector 814  Scenario2.node[116].veinsmobility  posx  ETV
vector 815  Scenario2.node[116].veinsmobility  posy  ETV
vector 821  Scenario2.node[117].veinsmobility  posx  ETV
vector 822  Scenario2.node[117].veinsmobility  posy  ETV
vector 691  Scenario2.node[98].veinsmobility  acceleration  ETV
vector 692  Scenario2.node[98].veinsmobility  co2emission  ETV
vector 698  Scenario2.node[99].veinsmobility  acceleration  ETV
vector 699  Scenario2.node[99].veinsmobility  co2emission  ETV
vector 705  Scenario2.node[100].veinsmobility  acceleration  ETV
vector 706  Scenario2.node[100].veinsmobility  co2emission  ETV
vector 712  Scenario2.node[101].veinsmobility  acceleration  ETV
vector 713  Scenario2.node[101].veinsmobility  co2emission  ETV
vector 719  Scenario2.node[102].veinsmobility  acceleration  ETV
vector 720  Scenario2.node[102].veinsmobility  co2emission  ETV
vector 726  Scenario2.node[103].veinsmobility  acceleration  ETV
vector 727  Scenario2.node[103].veinsmobility  co2emission  ETV
vector 733  Scenario2.node[104].veinsmobility  acceleration  ETV
vector 734  Scenario2.node[104].veinsmobility  co2emission  ETV
vector 740  Scenario2.node[105].veinsmobility  acceleration  ETV
vector 741  Scenario2.node[105].veinsmobility  co2emission  ETV
vector 747  Scenario2.node[106].veinsmobility  acceleration  ETV
vector 748  Scenario2.node[106].veinsmobility  co2emission  ETV
vector 753  Scenario2.node[107].veinsmobility  speed  ETV
vector 760  Scenario2.node[108].veinsmobility  speed  ETV
vector 767  Scenario2.node[109].veinsmobility  speed  ETV
vector 774  Scenario2.node[110].veinsmobility  speed  ETV
vector 781  Scenario2.node[111].veinsmobility  speed  ETV
vector 788  Scenario2.node[112].veinsmobility  speed  ETV
vector 795  Scenario2.node[113].veinsmobility  speed  ETV
vector 802  Scenario2.node[114].veinsmobility  speed  ETV
vector 828  Scenario2.node[118].veinsmobility  posx  ETV
vector 829  Scenario2.node[118].veinsmobility  posy  ETV
vector 835  Scenario2.node[119].veinsmobility  posx  ETV
vector 836  Scenario2.node[119].veinsmobility  posy  ETV
vector 842  Scenario2.node[120].veinsmobility  posx  ETV
vector 843  Scenario2.node[120].veinsmobility  posy  ETV
vector 849  Scenario2.node[121].veinsmobility  posx  ETV
vector 850  Scenario2.node[121].veinsmobility  posy  ETV
vector 856  Scenario2.node[122].veinsmobility  posx  ETV
vector 857  Scenario2.node[122].veinsmobility  posy  ETV
vector 754  Scenario2.node[107].veinsmobility  acceleration  ETV
vector 755  Scenario2.node[107].veinsmobility  co2emission  ETV
vector 761  Scenario2.node[108].veinsmobility  acceleration  ETV
vector 762  Scenario2.node[108].veinsmobility  co2emission  ETV
vector 768  Scenario2.node[109].veinsmobility  acceleration  ETV
vector 769  Scenario2.node[109].veinsmobility  co2emission  ETV
vector 775  Scenario2.node[110].veinsmobility  acceleration  ETV
vector 776  Scenario2.node[110].veinsmobility  co2emission  ETV
vector 782  Scenario2.node[111].veinsmobility  acceleration  ETV
vector 783  Scenario2.node[111].veinsmobility  co2emission  ETV
vector 789  Scenario2.node[112].veinsmobility  acceleration  ETV
vector 790  Scenario2.node[112].veinsmobility  co2emission  ETV
vector 796  Scenario2.node[113].veinsmobility  acceleration  ETV
vector 797  Scenario2.node[113].veinsmobility  co2emission  ETV
vector 803  Scenario2.node[114].veinsmobility  acceleration  ETV
vector 804  Scenario2.node[114].veinsmobility  co2emission  ETV
vector 809  Scenario2.node[115].veinsmobility  speed  ETV
vector 816  Scenario2.node[116].veinsmobility  speed  ETV
vector 823  Scenario2.node[117].veinsmobility  speed  ETV
vector 863  Scenario2.node[123].veinsmobility  posx  ETV
vector 864  Scenario2.node[123].veinsmobility  posy  ETV
vector 870  Scenario2.node[124].veinsmobility  posx  ETV
vector 871  Scenario2.node[124].veinsmobility  posy  ETV
vector 877  Scenario2.node[125].veinsmobility  posx  ETV
vector 878  Scenario2.node[125].veinsmobility  posy  ETV
vector 884  Scenario2.node[126].veinsmobility  posx  ETV
vector 885  Scenario2.node[126].veinsmobility  posy  ETV
vector 810  Scenario2.node[115].veinsmobility  acceleration  ETV
vector 811  Scenario2.node[115].veinsmobility  co2emission  ETV
vector 817  Scenario2.node[116].veinsmobility  acceleration  ETV
vector 818  Scenario2.node[116].veinsmobility  co2emission  ETV
vector 824  Scenario2.node[117].veinsmobility  acceleration  ETV
vector 825  Scenario2.node[117].veinsmobility  co2emission  ETV
vector 830  Scenario2.node[118].veinsmobility  speed  ETV
vector 837  Scenario2.node[119].veinsmobility  speed  ETV
vector 844  Scenario2.node[120].veinsmobility  speed  ETV
vector 851  Scenario2.node[121].veinsmobility  speed  ETV
vector 858  Scenario2.node[122].veinsmobility  speed  ETV
vector 891  Scenario2.node[127].veinsmobility  posx  ETV
vector 892  Scenario2.node[127].veinsmobility  posy  ETV
vector 898  Scenario2.node[128].veinsmobility  posx  ETV
vector 899  Scenario2.node[128].veinsmobility  posy  ETV
vector 905  Scenario2.node[129].veinsmobility  posx  ETV
vector 906  Scenario2.node[129].veinsmobility  posy  ETV
vector 912  Scenario2.node[130].veinsmobility  posx  ETV
vector 913  Scenario2.node[130].veinsmobility  posy  ETV
vector 831  Scenario2.node[118].veinsmobility  acceleration  ETV
vector 832  Scenario2.node[118].veinsmobility  co2emission  ETV
vector 838  Scenario2.node[119].veinsmobility  acceleration  ETV
vector 839  Scenario2.node[119].veinsmobility  co2emission  ETV
vector 845  Scenario2.node[120].veinsmobility  acceleration  ETV
vector 846  Scenario2.node[120].veinsmobility  co2emission  ETV
vector 852  Scenario2.node[121].veinsmobility  acceleration  ETV
vector 853  Scenario2.node[121].veinsmobility  co2emission  ETV
vector 859  Scenario2.node[122].veinsmobility  acceleration  ETV
vector 860  Scenario2.node[122].veinsmobility  co2emission  ETV
vector 865  Scenario2.node[123].veinsmobility  speed  ETV
vector 872  Scenario2.node[124].veinsmobility  speed  ETV
vector 879  Scenario2.node[125].veinsmobility  speed  ETV
vector 886  Scenario2.node[126].veinsmobility  speed  ETV
vector 919  Scenario2.node[131].veinsmobility  posx  ETV
vector 920  Scenario2.node[131].veinsmobility  posy  ETV
vector 926  Scenario2.node[132].veinsmobility  posx  ETV
vector 927  Scenario2.node[132].veinsmobility  posy  ETV
vector 933  Scenario2.node[133].veinsmobility  posx  ETV
vector 934  Scenario2.node[133].veinsmobility  posy  ETV
vector 866  Scenario2.node[123].veinsmobility  acceleration  ETV
vector 867  Scenario2.node[123].veinsmobility  co2emission  ETV
vector 873  Scenario2.node[124].veinsmobility  acceleration  ETV
vector 874  Scenario2.node[124].veinsmobility  co2emission  ETV
vector 880  Scenario2.node[125].veinsmobility  acceleration  ETV
vector 881  Scenario2.node[125].veinsmobility  co2emission  ETV
vector 887  Scenario2.node[126].veinsmobility  acceleration  ETV
vector 888  Scenario2.node[126].veinsmobility  co2emission  ETV
vector 893  Scenario2.node[127].veinsmobility  speed  ETV
vector 900  Scenario2.node[128].veinsmobility  speed  ETV
vector 907  Scenario2.node[129].veinsmobility  speed  ETV
vector 914  Scenario2.node[130].veinsmobility  speed  ETV
vector 940  Scenario2.node[134].veinsmobility  posx  ETV
vector 941  Scenario2.node[134].veinsmobility  posy  ETV
vector 947  Scenario2.node[135].veinsmobility  posx  ETV
vector 948  Scenario2.node[135].veinsmobility  posy  ETV
vector 954  Scenario2.node[136].veinsmobility  posx  ETV
vector 955  Scenario2.node[136].veinsmobility  posy  ETV
vector 894  Scenario2.node[127].veinsmobility  acceleration  ETV
vector 895  Scenario2.node[127].veinsmobility  co2emission  ETV
vector 901  Scenario2.node[128].veinsmobility  acceleration  ETV
vector 902  Scenario2.node[128].veinsmobility  co2emission  ETV
vector 908  Scenario2.node[129].veinsmobility  acceleration  ETV
vector 909  Scenario2.node[129].veinsmobility  co2emission  ETV
vector 915  Scenario2.node[130].veinsmobility  acceleration  ETV
vector 916  Scenario2.node[130].veinsmobility  co2emission  ETV
vector 921  Scenario2.node[131].veinsmobility  speed  ETV
vector 928  Scenario2.node[132].veinsmobility  speed  ETV
vector 935  Scenario2.node[133].veinsmobility  speed  ETV
vector 961  Scenario2.node[137].veinsmobility  posx  ETV
vector 962  Scenario2.node[137].veinsmobility  posy  ETV
vector 968  Scenario2.node[138].veinsmobility  posx  ETV
vector 969  Scenario2.node[138].veinsmobility  posy  ETV
vector 975  Scenario2.node[139].veinsmobility  posx  ETV
vector 976  Scenario2.node[139].veinsmobility  posy  ETV
vector 982  Scenario2.node[140].veinsmobility  posx  ETV
vector 983  Scenario2.node[140].veinsmobility  posy  ETV
vector 989  Scenario2.node[141].veinsmobility  posx  ETV
vector 990  Scenario2.node[141].veinsmobility  posy  ETV
vector 996  Scenario2.node[142].veinsmobility  posx  ETV
vector 997  Scenario2.node[142].veinsmobility  posy  ETV
vector 922  Scenario2.node[131].veinsmobility  acceleration  ETV
vector 923  Scenario2.node[131].veinsmobility  co2emission  ETV
vector 929  Scenario2.node[132].veinsmobility  acceleration  ETV
vector 930  Scenario2.node[132].veinsmobility  co2emission  ETV
vector 936  Scenario2.node[133].veinsmobility  acceleration  ETV
vector 937  Scenario2.node[133].veinsmobility  co2emission  ETV
vector 942  Scenario2.node[134].veinsmobility  speed  ETV
vector 949  Scenario2.node[135].veinsmobility  speed  ETV
vector 956  Scenario2.node[136].veinsmobility  speed  ETV
vector 1003  Scenario2.node[143].veinsmobility  posx  ETV
vector 1004  Scenario2.node[143].veinsmobility  posy  ETV
vector 1010  Scenario2.node[144].veinsmobility  posx  ETV
vector 1011  Scenario2.node[144].veinsmobility  posy  ETV
vector 1017  Scenario2.node[145].veinsmobility  posx  ETV
vector 1018  Scenario2.node[145].veinsmobility  posy  ETV
vector 1024  Scenario2.node[146].veinsmobility  posx  ETV
vector 1025  Scenario2.node[146].veinsmobility  posy  ETV
vector 1031  Scenario2.node[147].veinsmobility  posx  ETV
vector 1032  Scenario2.node[147].veinsmobility  posy  ETV
vector 1038  Scenario2.node[148].veinsmobility  posx  ETV
vector 1039  Scenario2.node[148].veinsmobility  posy  ETV
vector 1045  Scenario2.node[149].veinsmobility  posx  ETV
vector 1046  Scenario2.node[149].veinsmobility  posy  ETV
vector 1052  Scenario2.node[150].veinsmobility  posx  ETV
vector 1053  Scenario2.node[150].veinsmobility  posy  ETV
vector 1059  Scenario2.node[151].veinsmobility  posx  ETV
vector 1060  Scenario2.node[151].veinsmobility  posy  ETV
vector 1066  Scenario2.node[152].veinsmobility  posx  ETV
vector 1067  Scenario2.node[152].veinsmobility  posy  ETV
vector 1073  Scenario2.node[153].veinsmobility  posx  ETV
vector 1074  Scenario2.node[153].veinsmobility  posy  ETV
vector 1080  Scenario2.node[154].veinsmobility  posx  ETV
vector 1081  Scenario2.node[154].veinsmobility  posy  ETV
vector 943  Scenario2.node[134].veinsmobility  acceleration  ETV
vector 944  Scenario2.node[134].veinsmobility  co2emission  ETV
vector 950  Scenario2.node[135].veinsmobility  acceleration  ETV
vector 951  Scenario2.node[135].veinsmobility  co2emission  ETV
vector 957  Scenario2.node[136].veinsmobility  acceleration  ETV
vector 958  Scenario2.node[136].veinsmobility  co2emission  ETV
vector 963  Scenario2.node[137].veinsmobility  speed  ETV
vector 970  Scenario2.node[138].veinsmobility  speed  ETV
vector 977  Scenario2.node[139].veinsmobility  speed  ETV
vector 984  Scenario2.node[140].veinsmobility  speed  ETV
vector 991  Scenario2.node[141].veinsmobility  speed  ETV
vector 998  Scenario2.node[142].veinsmobility  speed  ETV
vector 1087  Scenario2.node[155].veinsmobility  posx  ETV
vector 1088  Scenario2.node[155].veinsmobility  posy  ETV
vector 1094  Scenario2.node[156].veinsmobility  posx  ETV
vector 1095  Scenario2.node[156].veinsmobility  posy  ETV
vector 1101  Scenario2.node[157].veinsmobility  posx  ETV
vector 1102  Scenario2.node[157].veinsmobility  posy  ETV
vector 1108  Scenario2.node[158].veinsmobility  posx  ETV
vector 1109  Scenario2.node[158].veinsmobility  posy  ETV
vector 1115  Scenario2.node[159].veinsmobility  posx  ETV
vector 1116  Scenario2.node[159].veinsmobility  posy  ETV
vector 964  Scenario2.node[137].veinsmobility  acceleration  ETV
vector 965  Scenario2.node[137].veinsmobility  co2emission  ETV
vector 971  Scenario2.node[138].veinsmobility  acceleration  ETV
vector 972  Scenario2.node[138].veinsmobility  co2emission  ETV
vector 978  Scenario2.node[139].veinsmobility  acceleration  ETV
vector 979  Scenario2.node[139].veinsmobility  co2emission  ETV
vector 985  Scenario2.node[140].veinsmobility  acceleration  ETV
vector 986  Scenario2.node[140].veinsmobility  co2emission  ETV
vector 992  Scenario2.node[141].veinsmobility  acceleration  ETV
vector 993  Scenario2.node[141].veinsmobility  co2emission  ETV
vector 999  Scenario2.node[142].veinsmobility  acceleration  ETV
vector 1000  Scenario2.node[142].veinsmobility  co2emission  ETV
vector 1005  Scenario2.node[143].veinsmobility  speed  ETV
vector 1012  Scenario2.node[144].veinsmobility  speed  ETV
vector 1019  Scenario2.node[145].veinsmobility  speed  ETV
vector 1026  Scenario2.node[146].veinsmobility  speed  ETV
vector 1033  Scenario2.node[147].veinsmobility  speed  ETV
vector 1040  Scenario2.node[148].veinsmobility  speed  ETV
vector 1047  Scenario2.node[149].veinsmobility  speed  ETV
vector 1054  Scenario2.node[150].veinsmobility  speed  ETV
vector 1061  Scenario2.node[151].veinsmobility  speed  ETV
vector 1068  Scenario2.node[152].veinsmobility  speed  ETV
vector 1075  Scenario2.node[153].veinsmobility  speed  ETV
vector 1082  Scenario2.node[154].veinsmobility  speed  ETV
vector 1122  Scenario2.node[160].veinsmobility  posx  ETV
vector 1123  Scenario2.node[160].veinsmobility  posy  ETV
vector 1129  Scenario2.node[161].veinsmobility  posx  ETV
vector 1130  Scenario2.node[161].veinsmobility  posy  ETV
vector 1136  Scenario2.node[162].veinsmobility  posx  ETV
vector 1137  Scenario2.node[162].veinsmobility  posy  ETV
vector 1143  Scenario2.node[163].veinsmobility  posx  ETV
vector 1144  Scenario2.node[163].veinsmobility  posy  ETV
vector 1150  Scenario2.node[164].veinsmobility  posx  ETV
vector 1151  Scenario2.node[164].veinsmobility  posy  ETV
vector 1157  Scenario2.node[165].veinsmobility  posx  ETV
vector 1158  Scenario2.node[165].veinsmobility  posy  ETV
vector 1006  Scenario2.node[143].veinsmobility  acceleration  ETV
vector 1007  Scenario2.node[143].veinsmobility  co2emission  ETV
vector 1013  Scenario2.node[144].veinsmobility  acceleration  ETV
vector 1014  Scenario2.node[144].veinsmobility  co2emission  ETV
vector 1020  Scenario2.node[145].veinsmobility  acceleration  ETV
vector 1021  Scenario2.node[145].veinsmobility  co2emission  ETV
vector 1027  Scenario2.node[146].veinsmobility  acceleration  ETV
vector 1028  Scenario2.node[146].veinsmobility  co2emission  ETV
vector 1034  Scenario2.node[147].veinsmobility  acceleration  ETV
vector 1035  Scenario2.node[147].veinsmobility  co2emission  ETV
vector 1041  Scenario2.node[148].veinsmobility  acceleration  ETV
vector 1042  Scenario2.node[148].veinsmobility  co2emission  ETV
vector 1048  Scenario2.node[149].veinsmobility  acceleration  ETV
vector 1049  Scenario2.node[149].veinsmobility  co2emission  ETV
vector 1055  Scenario2.node[150].veinsmobility  acceleration  ETV
vector 1056  Scenario2.node[150].veinsmobility  co2emission  ETV
vector 1062  Scenario2.node[151].veinsmobility  acceleration  ETV
vector 1063  Scenario2.node[151].veinsmobility  co2emission  ETV
vector 1069  Scenario2.node[152].veinsmobility  acceleration  ETV
vector 1070  Scenario2.node[152].veinsmobility  co2emission  ETV
vector 1076  Scenario2.node[153].veinsmobility  acceleration  ETV
vector 1077  Scenario2.node[153].veinsmobility  co2emission  ETV
vector 1083  Scenario2.node[154].veinsmobility  acceleration  ETV
vector 1084  Scenario2.node[154].veinsmobility  co2emission  ETV
vector 1089  Scenario2.node[155].veinsmobility  speed  ETV
vector 1096  Scenario2.node[156].veinsmobility  speed  ETV
vector 1103  Scenario2.node[157].veinsmobility  speed  ETV
vector 1110  Scenario2.node[158].veinsmobility  speed  ETV
vector 1117  Scenario2.node[159].veinsmobility  speed  ETV
vector 1164  Scenario2.node[166].veinsmobility  posx  ETV
vector 1165  Scenario2.node[166].veinsmobility  posy  ETV
vector 1171  Scenario2.node[167].veinsmobility  posx  ETV
vector 1172  Scenario2.node[167].veinsmobility  posy  ETV
vector 1090  Scenario2.node[155].veinsmobility  acceleration  ETV
vector 1091  Scenario2.node[155].veinsmobility  co2emission  ETV
vector 1097  Scenario2.node[156].veinsmobility  acceleration  ETV
vector 1098  Scenario2.node[156].veinsmobility  co2emission  ETV
vector 1104  Scenario2.node[157].veinsmobility  acceleration  ETV
vector 1105  Scenario2.node[157].veinsmobility  co2emission  ETV
vector 1111  Scenario2.node[158].veinsmobility  acceleration  ETV
vector 1112  Scenario2.node[158].veinsmobility  co2emission  ETV
vector 1118  Scenario2.node[159].veinsmobility  acceleration  ETV
vector 1119  Scenario2.node[159].veinsmobility  co2emission  ETV
vector 1124  Scenario2.node[160].veinsmobility  speed  ETV
vector 1131  Scenario2.node[161].veinsmobility  speed  ETV
vector 1138  Scenario2.node[162].veinsmobility  speed  ETV
vector 1145  Scenario2.node[163].veinsmobility  speed  ETV
vector 1152  Scenario2.node[164].veinsmobility  speed  ETV
vector 1159  Scenario2.node[165].veinsmobility  speed  ETV
vector 1178  Scenario2.node[168].veinsmobility  posx  ETV
vector 1179  Scenario2.node[168].veinsmobility  posy  ETV
vector 1185  Scenario2.node[169].veinsmobility  posx  ETV
vector 1186  Scenario2.node[169].veinsmobility  posy  ETV
vector 1192  Scenario2.node[170].veinsmobility  posx  ETV
vector 1193  Scenario2.node[170].veinsmobility  posy  ETV
vector 1199  Scenario2.node[171].veinsmobility  posx  ETV
vector 1200  Scenario2.node[171].veinsmobility  posy  ETV
vector 1206  Scenario2.node[172].veinsmobility  posx  ETV
vector 1207  Scenario2.node[172].veinsmobility  posy  ETV
vector 1125  Scenario2.node[160].veinsmobility  acceleration  ETV
vector 1126  Scenario2.node[160].veinsmobility  co2emission  ETV
vector 1132  Scenario2.node[161].veinsmobility  acceleration  ETV
vector 1133  Scenario2.node[161].veinsmobility  co2emission  ETV
vector 1139  Scenario2.node[162].veinsmobility  acceleration  ETV
vector 1140  Scenario2.node[162].veinsmobility  co2emission  ETV
vector 1146  Scenario2.node[163].veinsmobility  acceleration  ETV
vector 1147  Scenario2.node[163].veinsmobility  co2emission  ETV
vector 1153  Scenario2.node[164].veinsmobility  acceleration  ETV
vector 1154  Scenario2.node[164].veinsmobility  co2emission  ETV
vector 1160  Scenario2.node[165].veinsmobility  acceleration  ETV
vector 1161  Scenario2.node[165].veinsmobility  co2emission  ETV
vector 1166  Scenario2.node[166].veinsmobility  speed  ETV
vector 1173  Scenario2.node[167].veinsmobility  speed  ETV
vector 1213  Scenario2.node[173].veinsmobility  posx  ETV
vector 1214  Scenario2.node[173].veinsmobility  posy  ETV
vector 1220  Scenario2.node[174].veinsmobility  posx  ETV
vector 1221  Scenario2.node[174].veinsmobility  posy  ETV
vector 1227  Scenario2.node[175].veinsmobility  posx  ETV
vector 1228  Scenario2.node[175].veinsmobility  posy  ETV
vector 1167  Scenario2.node[166].veinsmobility  acceleration  ETV
vector 1168  Scenario2.node[166].veinsmobility  co2emission  ETV
vector 1174  Scenario2.node[167].veinsmobility  acceleration  ETV
vector 1175  Scenario2.node[167].veinsmobility  co2emission  ETV
vector 1180  Scenario2.node[168].veinsmobility  speed  ETV
vector 1187  Scenario2.node[169].veinsmobility  speed  ETV
vector 1194  Scenario2.node[170].veinsmobility  speed  ETV
vector 1201  Scenario2.node[171].veinsmobility  speed  ETV
vector 1208  Scenario2.node[172].veinsmobility  speed  ETV
vector 1234  Scenario2.node[176].veinsmobility  posx  ETV
vector 1235  Scenario2.node[176].veinsmobility  posy  ETV
vector 1241  Scenario2.node[177].veinsmobility  posx  ETV
vector 1242  Scenario2.node[177].veinsmobility  posy  ETV
vector 1181  Scenario2.node[168].veinsmobility  acceleration  ETV
vector 1182  Scenario2.node[168].veinsmobility  co2emission  ETV
vector 1188  Scenario2.node[169].veinsmobility  acceleration  ETV
vector 1189  Scenario2.node[169].veinsmobility  co2emission  ETV
vector 1195  Scenario2.node[170].veinsmobility  acceleration  ETV
vector 1196  Scenario2.node[170].veinsmobility  co2emission  ETV
vector 1202  Scenario2.node[171].veinsmobility  acceleration  ETV
vector 1203  Scenario2.node[171].veinsmobility  co2emission  ETV
vector 1209  Scenario2.node[172].veinsmobility  acceleration  ETV
vector 1210  Scenario2.node[172].veinsmobility  co2emission  ETV
vector 1215  Scenario2.node[173].veinsmobility  speed  ETV
vector 1222  Scenario2.node[174].veinsmobility  speed  ETV
vector 1229  Scenario2.node[175].veinsmobility  speed  ETV
vector 1248  Scenario2.node[178].veinsmobility  posx  ETV
vector 1249  Scenario2.node[178].veinsmobility  posy  ETV
vector 1255  Scenario2.node[179].veinsmobility  posx  ETV
vector 1256  Scenario2.node[179].veinsmobility  posy  ETV
vector 1262  Scenario2.node[180].veinsmobility  posx  ETV
vector 1263  Scenario2.node[180].veinsmobility  posy  ETV
vector 1269  Scenario2.node[181].veinsmobility  posx  ETV
vector 1270  Scenario2.node[181].veinsmobility  posy  ETV
vector 1276  Scenario2.node[182].veinsmobility  posx  ETV
vector 1277  Scenario2.node[182].veinsmobility  posy  ETV
vector 1283  Scenario2.node[183].veinsmobility  posx  ETV
vector 1284  Scenario2.node[183].veinsmobility  posy  ETV
vector 1290  Scenario2.node[184].veinsmobility  posx  ETV
vector 1291  Scenario2.node[184].veinsmobility  posy  ETV
vector 1216  Scenario2.node[173].veinsmobility  acceleration  ETV
vector 1217  Scenario2.node[173].veinsmobility  co2emission  ETV
vector 1223  Scenario2.node[174].veinsmobility  acceleration  ETV
vector 1224  Scenario2.node[174].veinsmobility  co2emission  ETV
vector 1230  Scenario2.node[175].veinsmobility  acceleration  ETV
vector 1231  Scenario2.node[175].veinsmobility  co2emission  ETV
vector 1236  Scenario2.node[176].veinsmobility  speed  ETV
vector 1243  Scenario2.node[177].veinsmobility  speed  ETV
vector 1297  Scenario2.node[185].veinsmobility  posx  ETV
vector 1298  Scenario2.node[185].veinsmobility  posy  ETV
vector 1304  Scenario2.node[186].veinsmobility  posx  ETV
vector 1305  Scenario2.node[186].veinsmobility  posy  ETV
vector 1311  Scenario2.node[187].veinsmobility  posx  ETV
vector 1312  Scenario2.node[187].veinsmobility  posy  ETV
vector 1318  Scenario2.node[188].veinsmobility  posx  ETV
vector 1319  Scenario2.node[188].veinsmobility  posy  ETV
vector 1237  Scenario2.node[176].veinsmobility  acceleration  ETV
vector 1238  Scenario2.node[176].veinsmobility  co2emission  ETV
vector 1244  Scenario2.node[177].veinsmobility  acceleration  ETV
vector 1245  Scenario2.node[177].veinsmobility  co2emission  ETV
vector 1250  Scenario2.node[178].veinsmobility  speed  ETV
vector 1257  Scenario2.node[179].veinsmobility  speed  ETV
vector 1264  Scenario2.node[180].veinsmobility  speed  ETV
vector 1271  Scenario2.node[181].veinsmobility  speed  ETV
vector 1278  Scenario2.node[182].veinsmobility  speed  ETV
vector 1285  Scenario2.node[183].veinsmobility  speed  ETV
vector 1292  Scenario2.node[184].veinsmobility  speed  ETV
vector 1325  Scenario2.node[189].veinsmobility  posx  ETV
vector 1326  Scenario2.node[189].veinsmobility  posy  ETV
vector 1332  Scenario2.node[190].veinsmobility  posx  ETV
vector 1333  Scenario2.node[190].veinsmobility  posy  ETV
vector 1339  Scenario2.node[191].veinsmobility  posx  ETV
vector 1340  Scenario2.node[191].veinsmobility  posy  ETV
vector 1251  Scenario2.node[178].veinsmobility  acceleration  ETV
vector 1252  Scenario2.node[178].veinsmobility  co2emission  ETV
vector 1258  Scenario2.node[179].veinsmobility  acceleration  ETV
vector 1259  Scenario2.node[179].veinsmobility  co2emission  ETV
vector 1265  Scenario2.node[180].veinsmobility  acceleration  ETV
vector 1266  Scenario2.node[180].veinsmobility  co2emission  ETV
vector 1272  Scenario2.node[181].veinsmobility  acceleration  ETV
vector 1273  Scenario2.node[181].veinsmobility  co2emission  ETV
vector 1279  Scenario2.node[182].veinsmobility  acceleration  ETV
vector 1280  Scenario2.node[182].veinsmobility  co2emission  ETV
vector 1286  Scenario2.node[183].veinsmobility  acceleration  ETV
vector 1287  Scenario2.node[183].veinsmobility  co2emission  ETV
vector 1293  Scenario2.node[184].veinsmobility  acceleration  ETV
vector 1294  Scenario2.node[184].veinsmobility  co2emission  ETV
vector 1299  Scenario2.node[185].veinsmobility  speed  ETV
vector 1306  Scenario2.node[186].veinsmobility  speed  ETV
vector 1313  Scenario2.node[187].veinsmobility  speed  ETV
vector 1320  Scenario2.node[188].veinsmobility  speed  ETV
vector 1346  Scenario2.node[192].veinsmobility  posx  ETV
vector 1347  Scenario2.node[192].veinsmobility  posy  ETV
vector 1353  Scenario2.node[193].veinsmobility  posx  ETV
vector 1354  Scenario2.node[193].veinsmobility  posy  ETV
vector 1360  Scenario2.node[194].veinsmobility  posx  ETV
vector 1361  Scenario2.node[194].veinsmobility  posy  ETV
vector 1300  Scenario2.node[185].veinsmobility  acceleration  ETV
vector 1301  Scenario2.node[185].veinsmobility  co2emission  ETV
vector 1307  Scenario2.node[186].veinsmobility  acceleration  ETV
vector 1308  Scenario2.node[186].veinsmobility  co2emission  ETV
vector 1314  Scenario2.node[187].veinsmobility  acceleration  ETV
vector 1315  Scenario2.node[187].veinsmobility  co2emission  ETV
vector 1321  Scenario2.node[188].veinsmobility  acceleration  ETV
vector 1322  Scenario2.node[188].veinsmobility  co2emission  ETV
vector 1327  Scenario2.node[189].veinsmobility  speed  ETV
vector 1334  Scenario2.node[190].veinsmobility  speed  ETV
vector 1341  Scenario2.node[191].veinsmobility  speed  ETV
vector 1367  Scenario2.node[195].veinsmobility  posx  ETV
vector 1368  Scenario2.node[195].veinsmobility  posy  ETV
vector 1374  Scenario2.node[196].veinsmobility  posx  ETV
vector 1375  Scenario2.node[196].veinsmobility  posy  ETV
vector 1381  Scenario2.node[197].veinsmobility  posx  ETV
vector 1382  Scenario2.node[197].veinsmobility  posy  ETV
vector 1388  Scenario2.node[198].veinsmobility  posx  ETV
vector 1389  Scenario2.node[198].veinsmobility  posy  ETV
vector 1328  Scenario2.node[189].veinsmobility  acceleration  ETV
vector 1329  Scenario2.node[189].veinsmobility  co2emission  ETV
vector 1335  Scenario2.node[190].veinsmobility  acceleration  ETV
vector 1336  Scenario2.node[190].veinsmobility  co2emission  ETV
vector 1342  Scenario2.node[191].veinsmobility  acceleration  ETV
vector 1343  Scenario2.node[191].veinsmobility  co2emission  ETV
vector 1348  Scenario2.node[192].veinsmobility  speed  ETV
vector 1355  Scenario2.node[193].veinsmobility  speed  ETV
vector 1362  Scenario2.node[194].veinsmobility  speed  ETV
vector 1395  Scenario2.node[199].veinsmobility  posx  ETV
vector 1396  Scenario2.node[199].veinsmobility  posy  ETV
vector 1402  Scenario2.node[200].veinsmobility  posx  ETV
vector 1403  Scenario2.node[200].veinsmobility  posy  ETV
vector 1409  Scenario2.node[201].veinsmobility  posx  ETV
vector 1410  Scenario2.node[201].veinsmobility  posy  ETV
vector 1416  Scenario2.node[202].veinsmobility  posx  ETV
vector 1417  Scenario2.node[202].veinsmobility  posy  ETV
vector 1423  Scenario2.node[203].veinsmobility  posx  ETV
vector 1424  Scenario2.node[203].veinsmobility  posy  ETV
vector 1430  Scenario2.node[204].veinsmobility  posx  ETV
vector 1431  Scenario2.node[204].veinsmobility  posy  ETV
vector 1437  Scenario2.node[205].veinsmobility  posx  ETV
vector 1438  Scenario2.node[205].veinsmobility  posy  ETV
vector 1444  Scenario2.node[206].veinsmobility  posx  ETV
vector 1445  Scenario2.node[206].veinsmobility  posy  ETV
vector 1349  Scenario2.node[192].veinsmobility  acceleration  ETV
vector 1350  Scenario2.node[192].veinsmobility  co2emission  ETV
vector 1356  Scenario2.node[193].veinsmobility  acceleration  ETV
vector 1357  Scenario2.node[193].veinsmobility  co2emission  ETV
vector 1363  Scenario2.node[194].veinsmobility  acceleration  ETV
vector 1364  Scenario2.node[194].veinsmobility  co2emission  ETV
vector 1369  Scenario2.node[195].veinsmobility  speed  ETV
vector 1376  Scenario2.node[196].veinsmobility  speed  ETV
vector 1383  Scenario2.node[197].veinsmobility  speed  ETV
vector 1390  Scenario2.node[198].veinsmobility  speed  ETV
vector 1451  Scenario2.node[207].veinsmobility  posx  ETV
vector 1452  Scenario2.node[207].veinsmobility  posy  ETV
vector 1458  Scenario2.node[208].veinsmobility  posx  ETV
vector 1459  Scenario2.node[208].veinsmobility  posy  ETV
vector 1465  Scenario2.node[209].veinsmobility  posx  ETV
vector 1466  Scenario2.node[209].veinsmobility  posy  ETV
vector 1472  Scenario2.node[210].veinsmobility  posx  ETV
vector 1473  Scenario2.node[210].veinsmobility  posy  ETV
vector 1479  Scenario2.node[211].veinsmobility  posx  ETV
vector 1480  Scenario2.node[211].veinsmobility  posy  ETV
vector 1370  Scenario2.node[195].veinsmobility  acceleration  ETV
vector 1371  Scenario2.node[195].veinsmobility  co2emission  ETV
vector 1377  Scenario2.node[196].veinsmobility  acceleration  ETV
vector 1378  Scenario2.node[196].veinsmobility  co2emission  ETV
vector 1384  Scenario2.node[197].veinsmobility  acceleration  ETV
vector 1385  Scenario2.node[197].veinsmobility  co2emission  ETV
vector 1391  Scenario2.node[198].veinsmobility  acceleration  ETV
vector 1392  Scenario2.node[198].veinsmobility  co2emission  ETV
vector 1397  Scenario2.node[199].veinsmobility  speed  ETV
vector 1404  Scenario2.node[200].veinsmobility  speed  ETV
vector 1411  Scenario2.node[201].veinsmobility  speed  ETV
vector 1418  Scenario2.node[202].veinsmobility  speed  ETV
vector 1425  Scenario2.node[203].veinsmobility  speed  ETV
vector 1432  Scenario2.node[204].veinsmobility  speed  ETV
vector 1439  Scenario2.node[205].veinsmobility  speed  ETV
vector 1446  Scenario2.node[206].veinsmobility  speed  ETV
vector 1486  Scenario2.node[212].veinsmobility  posx  ETV
vector 1487  Scenario2.node[212].veinsmobility  posy  ETV
vector 1398  Scenario2.node[199].veinsmobility  acceleration  ETV
vector 1399  Scenario2.node[199].veinsmobility  co2emission  ETV
vector 1405  Scenario2.node[200].veinsmobility  acceleration  ETV
vector 1406  Scenario2.node[200].veinsmobility  co2emission  ETV
vector 1412  Scenario2.node[201].veinsmobility  acceleration  ETV
vector 1413  Scenario2.node[201].veinsmobility  co2emission  ETV
vector 1419  Scenario2.node[202].veinsmobility  acceleration  ETV
vector 1420  Scenario2.node[202].veinsmobility  co2emission  ETV
vector 1426  Scenario2.node[203].veinsmobility  acceleration  ETV
vector 1427  Scenario2.node[203].veinsmobility  co2emission  ETV
vector 1433  Scenario2.node[204].veinsmobility  acceleration  ETV
vector 1434  Scenario2.node[204].veinsmobility  co2emission  ETV
vector 1440  Scenario2.node[205].veinsmobility  acceleration  ETV
vector 1441  Scenario2.node[205].veinsmobility  co2emission  ETV
vector 1447  Scenario2.node[206].veinsmobility  acceleration  ETV
vector 1448  Scenario2.node[206].veinsmobility  co2emission  ETV
vector 1453  Scenario2.node[207].veinsmobility  speed  ETV
vector 1460  Scenario2.node[208].veinsmobility  speed  ETV
vector 1467  Scenario2.node[209].veinsmobility  speed  ETV
vector 1474  Scenario2.node[210].veinsmobility  speed  ETV
vector 1481  Scenario2.node[211].veinsmobility  speed  ETV
vector 1493  Scenario2.node[213].veinsmobility  posx  ETV
vector 1494  Scenario2.node[213].veinsmobility  posy  ETV
vector 1500  Scenario2.node[214].veinsmobility  posx  ETV
vector 1501  Scenario2.node[214].veinsmobility  posy  ETV
vector 1507  Scenario2.node[215].veinsmobility  posx  ETV
vector 1508  Scenario2.node[215].veinsmobility  posy  ETV
vector 1454  Scenario2.node[207].veinsmobility  acceleration  ETV
vector 1455  Scenario2.node[207].veinsmobility  co2emission  ETV
vector 1461  Scenario2.node[208].veinsmobility  acceleration  ETV
vector 1462  Scenario2.node[208].veinsmobility  co2emission  ETV
vector 1468  Scenario2.node[209].veinsmobility  acceleration  ETV
vector 1469  Scenario2.node[209].veinsmobility  co2emission  ETV
vector 1475  Scenario2.node[210].veinsmobility  acceleration  ETV
vector 1476  Scenario2.node[210].veinsmobility  co2emission  ETV
vector 1482  Scenario2.node[211].veinsmobility  acceleration  ETV
vector 1483  Scenario2.node[211].veinsmobility  co2emission  ETV
vector 1488  Scenario2.node[212].veinsmobility  speed  ETV
vector 1514  Scenario2.node[216].veinsmobility  posx  ETV
vector 1515  Scenario2.node[216].veinsmobility  posy  ETV
vector 1521  Scenario2.node[217].veinsmobility  posx  ETV
vector 1522  Scenario2.node[217].veinsmobility  posy  ETV
vector 1489  Scenario2.node[212].veinsmobility  acceleration  ETV
vector 1490  Scenario2.node[212].veinsmobility  co2emission  ETV
vector 1495  Scenario2.node[213].veinsmobility  speed  ETV
vector 1502  Scenario2.node[214].veinsmobility  speed  ETV
vector 1509  Scenario2.node[215].veinsmobility  speed  ETV
vector 1528  Scenario2.node[218].veinsmobility  posx  ETV
vector 1529  Scenario2.node[218].veinsmobility  posy  ETV
vector 1496  Scenario2.node[213].veinsmobility  acceleration  ETV
vector 1497  Scenario2.node[213].veinsmobility  co2emission  ETV
vector 1503  Scenario2.node[214].veinsmobility  acceleration  ETV
vector 1504  Scenario2.node[214].veinsmobility  co2emission  ETV
vector 1510  Scenario2.node[215].veinsmobility  acceleration  ETV
vector 1511  Scenario2.node[215].veinsmobility  co2emission  ETV
vector 1516  Scenario2.node[216].veinsmobility  speed  ETV
vector 1523  Scenario2.node[217].veinsmobility  speed  ETV
132	36236	3	3.424186073528
132	67310	4	4.2673718671564
132	104039	5	5.4293630295082
132	145813	6	6.3270905703103
132	194780	7	7.7022246744888
132	253924	8	8.7104953632682
132	322475	9	9.8289763695466
132	395028	10	10.611316769128
132	473628	11	7.3251110541253
132	557960	12	2.4445168439792
132	647800	13	2.4876177622211
132	741830	14	3.0718225149136
132	839794	15	2.4372559184701
132	947510	16	2.8779826083362
132	1073380	17	2.7002526060823
132	1206750	18	2.5557791183461
132	1350432	19	2.6499350526424
132	1497145	20	2.2973436317725
132	1652844	21	3.1051982340058
132	1813749	22	2.4786464788078
132	1977322	23	2.2939761026998
132	2154164	24	2.9848311790316
132	2337751	25	2.5703761728531
132	2527165	26	2.6860852974567
132	2721473	27	2.833137623609
132	2923548	28	2.4213824354232
132	3139348	29	2.7603018236822
132	3364851	30	2.3057982171341
132	3590985	31	2.8383445633221
132	3985652	32	2.6107228197961
132	4218326	33	2.5456615531333
131	36236	3	1.9054944779584
131	67310	4	1.8374724092055
131	104039	5	1.9299509178125
131	145813	6	1.8835326606664
131	194780	7	1.9882752746646
131	253924	8	1.9541321489913
131	322475	9	1.9496658870741
131	395028	10	1.8716125883511
131	473628	11	1.0206170126054
131	557960	12	-0.04510551722953
131	647800	13	-0.034605004116894
131	741830	14	0.090302056369836
131	839794	15	-0.04695787533419
131	947510	16	0.047912030629814
131	1073380	17	0.0087887768214578
131	1206750	18	-0.022075829885438
131	1350432	19	-0.001441522922832
131	1497145	20	-0.076385249120648
131	1652844	21	0.09732628874248
131	1813749	22	-0.038369091975039
131	1977322	23	-0.076625494612379
131	2154164	24	0.072568178579676
131	2337751	25	-0.0176113764802
131	2527165	26	0.0074977208580833
131	2721473	27	0.038386369666551
131	2923548	28	-0.05013331344351
131	3139348	29	0.023363622264004
131	3364851	30	-0.074028652922717
131	3590985	31	0.041567745264622
131	3985652	32	-0.0080868506571292
131	4218326	33	-0.021683781223839
130	11385	2	2.6377290236039
130	36236	3	4.5432235015623
130	67310	4	6.3806959107678
130	104039	5	8.3106468285803
130	145813	6	10.194179489247
130	194780	7	12.182454763911
130	253924	8	14.136586912903
130	322475	9	16.086252799977
130	395028	10	17.957865388328
130	473628	11	18.978482400933
130	557960	12	18.933376883704
130	647800	13	18.898771879587
130	741830	14	18.989073935957
130	839794	15	18.942116060623
130	947510	16	18.990028091252
130	1073380	17	18.998816868074
130	1206750	18	18.976741038188
130	1350432	19	18.975299515266
130	1497145	20	18.898914266145
130	1652844	21	18.996240554887
130	1813749	22	18.957871462912
130	1977322	23	18.8812459683
130	2154164	24	18.95381414688
130	2337751	25	18.936202770399
130	2527165	26	18.943700491257
130	2721473	27	18.982086860924
130	2923548	28	18.931953547481
130	3139348	29	18.955317169745
130	3364851	30	18.881288516822
130	3590985	31	18.922856262086
130	3985652	32	18.914769411429
130	4218326	33	18.893085630205
129	2	1	489.37302299786
129	11385	2	489.37302299786
129	36236	3	491.41373091347
129	67310	4	495.03966722545
129	104039	5	500.60075653665
129	145813	6	508.08830073175
129	194780	7	517.35888762623
129	253924	8	528.25022732736
129	322475	9	541.56546678271
129	395028	10	556.76298066021
129	473628	11	573.89565236671
129	557960	12	592.6439223081
129	647800	13	611.57807085518
129	741830	14	630.50321320816
129	839794	15	649.45385614268
129	947510	16	668.37811843908
129	1073380	17	687.32370699906
129	1206750	18	706.2593690591
129	1350432	19	725.18717249598
129	1497145	20	744.14270229419
129	1652844	21	763.06861112101
129	1813749	22	781.99254824094
129	1977322	23	800.95099396162
129	2154164	24	819.88285070069
129	2337751	25	838.83020686602
129	2527165	26	857.76238949954
129	2721473	27	876.70506109562
129	2923548	28	895.65416028153
129	3139348	29	914.59901503073
129	3364851	30	933.53500191392
129	3590985	31	952.47820410811
129	3985652	32	971.4186123894
129	4218326	33	990.35963494294
128	2	1	516.75
128	11385	2	516.75
128	36236	3	520.05
128	67310	4	520.05
128	104039	5	520.05
128	145813	6	520.05
128	194780	7	520.44930053119
128	253924	8	523.18853379094
128	322475	9	523.35
128	395028	10	523.35
128	473628	11	523.35
128	557960	12	523.35
128	647800	13	523.35
128	741830	14	523.35
128	839794	15	523.35
128	947510	16	523.35
128	1073380	17	523.35
128	1206750	18	523.35
128	1350432	19	523.35
128	1497145	20	523.35
128	1652844	21	523.35
128	1813749	22	523.35
128	1977322	23	523.35
128	2154164	24	523.35
128	2337751	25	523.35
128	2527165	26	523.35
128	2721473	27	523.35
128	2923548	28	523.35
128	3139348	29	523.35
128	3364851	30	523.35
128	3590985	31	523.35
128	3985652	32	523.35
128	4218326	33	523.35
vector 1535  Scenario2.node[219].veinsmobility  posx  ETV
vector 1536  Scenario2.node[219].veinsmobility  posy  ETV
vector 1542  Scenario2.node[220].veinsmobility  posx  ETV
vector 1543  Scenario2.node[220].veinsmobility  posy  ETV
vector 1517  Scenario2.node[216].veinsmobility  acceleration  ETV
vector 1518  Scenario2.node[216].veinsmobility  co2emission  ETV
vector 1524  Scenario2.node[217].veinsmobility  acceleration  ETV
vector 1525  Scenario2.node[217].veinsmobility  co2emission  ETV
vector 1530  Scenario2.node[218].veinsmobility  speed  ETV
510	104039	5	4.7316755435645
510	145813	6	4.9051580824501
510	194780	7	6.0581504651032
510	253924	8	7.4785892585194
510	322475	9	8.6690437332755
510	395028	10	10.291885771387
510	473628	11	11.273591646931
510	557960	12	6.8518405464222
510	647800	13	3.0097710607217
510	741830	14	2.7232258021444
510	839794	15	2.4324483289492
510	947510	16	2.5980672486686
510	1073380	17	2.7085941698292
510	1206750	18	2.8075267219489
510	1350432	19	2.6422573982465
510	1497145	20	2.5528581412144
510	1652844	21	2.3640103637205
510	1813749	22	2.6066102432032
510	1977322	23	2.7371177789594
510	2154164	24	2.7364453884878
510	2337751	25	3.0311658803436
510	2527165	26	2.2490704447112
510	2721473	27	2.8437145592489
510	2923548	28	2.7137253298407
510	3139348	29	2.484498513087
510	3364851	30	2.6007767719529
510	3590985	31	3.0138177841163
510	3985652	32	2.364427762292
510	4218326	33	2.6355156752125
510	4451433	34	2.8022908671468
509	104039	5	2.1615680599981
509	145813	6	1.7305736745195
509	194780	7	1.8381892520073
509	253924	8	1.9732625970873
509	322475	9	1.9902147069783
509	395028	10	2.0916458517383
509	473628	11	2.0230429894431
509	557960	12	0.92406570396074
509	647800	13	0.077423213708681
509	741830	14	0.014274460827
509	839794	15	-0.047853199748786
509	947510	16	-0.01120755229611
509	1073380	17	0.012608754360116
509	1206750	18	0.033153221316173
509	1350432	19	-0.0029006841802044
509	1497145	20	-0.021777591391
509	1652844	21	-0.061353818620557
509	1813749	22	-0.0078023461694841
509	1977322	23	0.020208776644431
509	2154164	24	0.019413260603326
509	2337751	25	0.081081733922474
509	2527165	26	-0.087316996220036
509	2721473	27	0.041715242904612
509	2923548	28	0.012832115583588
509	3139348	29	-0.036217993441969
509	3364851	30	-0.01039880263852
509	3590985	31	0.077366399432066
509	3985652	32	-0.062663024023639
509	4218326	33	-0.0031514658965186
509	4451433	34	0.032303076316602
508	67310	4	4.160416336859
508	104039	5	6.3219843968571
508	145813	6	8.0525580713766
508	194780	7	9.8907473233839
508	253924	8	11.864009920471
508	322475	9	13.854224627449
508	395028	10	15.945870479188
508	473628	11	17.968913468631
508	557960	12	18.892979172592
508	647800	13	18.9704023863
508	741830	14	18.984676847127
508	839794	15	18.936823647378
508	947510	16	18.925616095082
508	1073380	17	18.938224849442
508	1206750	18	18.971378070759
508	1350432	19	18.968477386578
508	1497145	20	18.946699795187
508	1652844	21	18.885345976567
508	1813749	22	18.877543630397
508	1977322	23	18.897752407042
508	2154164	24	18.917165667645
508	2337751	25	18.998247401568
508	2527165	26	18.910930405348
508	2721473	27	18.952645648252
508	2923548	28	18.965477763836
508	3139348	29	18.929259770394
508	3364851	30	18.918860967755
508	3590985	31	18.996227367187
508	3985652	32	18.933564343164
508	4218326	33	18.930412877267
508	4451433	34	18.962715953584
507	36236	3	489.73864672193
507	67310	4	489.73864672193
507	104039	5	492.98003002016
507	145813	6	498.32754644413
507	194780	7	505.60924259689
507	253924	8	514.66302819805
507	322475	9	523.35
507	395028	10	523.35
507	473628	11	523.35
507	557960	12	523.35
507	647800	13	523.35
507	741830	14	523.35
507	839794	15	523.35
507	947510	16	523.35
507	1073380	17	523.35
507	1206750	18	523.35
507	1350432	19	523.35
507	1497145	20	523.35
507	1652844	21	523.35
507	1813749	22	523.35
507	1977322	23	523.35
507	2154164	24	523.35
507	2337751	25	523.35
507	2527165	26	523.35
507	2721473	27	523.35
507	2923548	28	523.35
507	3139348	29	523.35
507	3364851	30	523.35
507	3590985	31	523.35
507	3985652	32	523.35
507	4218326	33	523.35
507	4451433	34	523.35
506	36236	3	513.45
506	67310	4	513.45
506	104039	5	513.45
506	145813	6	513.45
506	194780	7	513.45
506	253924	8	513.40460486848
506	322475	9	509.25043089817
506	395028	10	496.3150453671
506	473628	11	481.25281989485
506	557960	12	464.16840363446
506	647800	13	445.40514506171
506	741830	14	426.46394567559
506	839794	15	407.51236342738
506	947510	16	388.59107832765
506	1073380	17	369.65304702062
506	1206750	18	350.71693647347
506	1350432	19	331.7656597501
506	1497145	20	312.80845736749
506	1652844	21	293.87383171949
506	1813749	22	274.94099353533
506	1977322	23	256.00994364585
506	2154164	24	237.06853060078
506	2337751	25	218.12186101457
506	2527165	26	199.17830554817
506	2721473	27	180.25509100849
506	2923548	28	161.34723833145
506	3139348	29	142.42092681157
506	3364851	30	123.47203102432
506	3590985	31	104.56038120126
506	3985652	32	85.612057304691
506	4218326	33	66.683459538365
506	4451433	34	47.735398784356
vector 1549  Scenario2.node[221].veinsmobility  posx  ETV
vector 1550  Scenario2.node[221].veinsmobility  posy  ETV
vector 1531  Scenario2.node[218].veinsmobility  acceleration  ETV
vector 1532  Scenario2.node[218].veinsmobility  co2emission  ETV
vector 1537  Scenario2.node[219].veinsmobility  speed  ETV
vector 1544  Scenario2.node[220].veinsmobility  speed  ETV
139	36236	3	3.7719831489658
139	67310	4	4.760697120825
139	104039	5	5.2987022465328
139	145813	6	5.7109864113182
139	194780	7	5.8506916427494
139	253924	8	7.8417119124831
139	322475	9	8.2452257767773
139	395028	10	9.6704313836528
139	473628	11	7.442188577704
139	557960	12	3.3815838516294
139	647800	13	3.4043415241472
139	741830	14	2.7102683283387
139	839794	15	2.4830532438919
139	947510	16	3.3779871298169
139	1073380	17	2.6900797349405
139	1206750	18	3.243897962185
139	1350432	19	2.8389665687561
139	1497145	20	2.4443310300978
139	1652844	21	2.9369170332913
139	1813749	22	2.8132227387553
139	1977322	23	2.4892504127376
139	2154164	24	2.9936549810028
139	2337751	25	2.6044213054676
139	2527165	26	2.8889126700617
139	2721473	27	2.4620180486858
139	2923548	28	2.6393748972385
139	3139348	29	2.3107264046139
139	3364851	30	2.7690958266136
139	3590985	31	2.7498333438102
139	3985652	32	2.7750967041177
139	4218326	33	2.3516401941196
139	4451433	34	3.0829115688202
139	4685996	35	2.7648491193071
138	36236	3	2.0794576383522
138	67310	4	2.0007566959155
138	104039	5	1.7886503855395
138	145813	6	1.6240391898772
138	194780	7	1.4328133254312
138	253924	8	1.80302082908
138	322475	9	1.6671040021533
138	395028	10	1.7879393438711
138	473628	11	1.1296262104228
138	557960	12	0.18867983733892
138	647800	13	0.18597647145001
138	741830	14	0.02878518983421
138	839794	15	-0.0216095883519
138	947510	16	0.1725629583279
138	1073380	17	0.018605847494076
138	1206750	18	0.13651936482455
138	1350432	19	0.04542583890834
138	1497145	20	-0.040388799440986
138	1652844	21	0.066105878643242
138	1813749	22	0.037574756279209
138	1977322	23	-0.032634991108363
138	2154164	24	0.075667294451922
138	2337751	25	-0.0093898168274613
138	2527165	26	0.051229802992076
138	2721473	27	-0.040943698954155
138	2923548	28	-0.0019884402522798
138	3139348	29	-0.07201406288965
138	3364851	30	0.027947841952159
138	3590985	31	0.022943792309402
138	3985652	32	0.027558496503133
138	4218326	33	-0.063441614817371
138	4451433	34	0.093903543992873
138	4685996	35	0.023496522956993
137	11385	2	2.7469869994252
137	36236	3	4.8264446377774
137	67310	4	6.8272013336928
137	104039	5	8.6158517192324
137	145813	6	10.23989090911
[...]
1116	2337751	25	516.75
1116	2527165	26	516.75
1116	2721473	27	516.75
1116	2923548	28	516.75
1116	3139348	29	516.75
1116	3364851	30	516.75
1116	3590985	31	516.75
1116	3985652	32	516.75
1116	4218326	33	516.75
1116	4451433	34	516.75
1116	4685996	35	516.75
1116	4920115	36	516.75
1116	5154758	37	516.75
1116	5387901	38	516.75
1116	5621713	39	516.75
1116	5853051	40	516.75
1116	6086137	41	516.75
1116	6315507	42	516.75
1116	6547193	43	516.75
1116	6776197	44	520.05
1116	7006542	45	520.05
1116	7235672	46	520.05
1116	7467334	47	520.05
1116	7698831	48	520.05
1116	7931497	49	520.05
1116	8164726	50	520.05
1116	8396203	51	520.05
1116	8628253	52	520.05
1116	8858766	53	520.05
1116	9090904	54	520.05
1116	9321266	55	520.05
1116	9554138	56	520.05
1116	9784561	57	523.35
1116	10015123	58	523.35
1116	10245267	59	523.35
1116	10476059	60	523.35
1115	1073380	17	1022.3236122951
1115	1206750	18	1022.3236122951
1115	1350432	19	1020.5631362916
1115	1497145	20	1016.7377932634
1115	1652844	21	1010.9083858644
1115	1813749	22	1003.158013997
1115	1977322	23	993.59117519842
1115	2154164	24	982.16152716145
1115	2337751	25	968.63714015413
1115	2527165	26	953.1502942214
1115	2721473	27	935.61274882145
1115	2923548	28	916.69269945532
1115	3139348	29	897.73975916398
1115	3364851	30	878.81564539461
1115	3590985	31	859.87329071302
1115	3985652	32	840.93118401661
1115	4218326	33	821.99466137792
1115	4451433	34	803.06863887061
1115	4685996	35	784.13778399179
1115	4920115	36	765.19571201665
1115	5154758	37	746.24880645056
1115	5387901	38	727.31697696069
1115	5621713	39	708.38865430079
1115	5853051	40	689.45239117134
1115	6086137	41	670.50728344899
1115	6315507	42	651.70373733218
1115	6547193	43	634.44275000258
1115	6776197	44	618.07087205585
1115	7006542	45	602.21354974035
1115	7235672	46	589.08010919564
1115	7467334	47	578.56950407844
1115	7698831	48	570.40864437964
1115	7931497	49	564.02833848472
1115	8164726	50	558.37011689116
1115	8396203	51	552.45543123141
1115	8628253	52	545.55923016559
1115	8858766	53	537.16243107874
1115	9090904	54	527.13330610309
1115	9321266	55	515.43918453333
1115	9554138	56	501.93117549223
1115	9784561	57	486.52223351469
1115	10015123	58	469.08938065412
1115	10245267	59	450.19593369352
1115	10476059	60	431.2417989337
1175	1652844	21	4.216512450195
1175	1813749	22	5.3862162646769
1175	1977322	23	6.3770943209381
1175	2154164	24	7.3553060439855
1175	2337751	25	8.2984129465302
1175	2527165	26	9.3072327753418
1175	2721473	27	10.295208033162
1175	2923548	28	9.7646410857889
1175	3139348	29	2.5336853199177
1175	3364851	30	2.9982308027586
1175	3590985	31	2.6479394956282
1175	3985652	32	2.8803755569912
1175	4218326	33	2.4749145044464
1175	4451433	34	2.8196993044066
1175	4685996	35	2.3402397927563
1175	4920115	36	2.6844720009786
1175	5154758	37	2.9577234996335
1175	5387901	38	2.5334924495598
1175	5621713	39	2.2363843077513
1175	5853051	40	3.0275260151028
1175	6086137	41	2.5344807932943
1175	6315507	42	0.973
1175	6547193	43	2.6121577353336
1175	6776197	44	0.973
1175	7006542	45	0.973
1175	7235672	46	0.973
1175	7467334	47	0.973
1175	7698831	48	0.973
1175	7931497	49	0.973
1175	8164726	50	1.6849388203559
1175	8396203	51	3.1625080320746
1175	8628253	52	4.3907129322435
1175	8858766	53	5.640565850072
1175	9090904	54	4.9142501227037
1175	9321266	55	4.1961539958094
1175	9554138	56	4.0479014199599
1175	9784561	57	3.9504814219488
1175	10015123	58	4.2295817549594
1175	10245267	59	3.3909257741825
1175	10476059	60	4.2171829300135
1174	1652844	21	2.1356146661914
1174	1813749	22	2.1114900068124
1174	1977322	23	2.0324787611538
1174	2154164	24	1.9792897433578
1174	2337751	25	1.9314267522492
1174	2527165	26	1.9090627141343
1174	2721473	27	1.8828427932668
1174	2923548	28	1.5628862132028
1174	3139348	29	-0.023815483336801
1174	3364851	30	0.075546800638548
1174	3590985	31	-0.0011083647096548
1174	3985652	32	0.048101859830787
1174	4218326	33	-0.039259637952782
1174	4451433	34	0.034996462189593
1174	4685996	35	-0.067789869762493
1174	4920115	36	0.0074310169415526
1174	5154758	37	0.064981269747953
1174	5387901	38	-0.02683587621199
1174	5621713	39	-0.08935069723055
1174	5853051	40	0.081496208284516
1174	6086137	41	-0.02558377190493
1174	6315507	42	-0.87124289392652
1174	6547193	43	0.019035252342093
1174	6776197	44	-1.3057804778736
1174	7006542	45	-1.2121702825438
1174	7235672	46	-2.2328182640172
1174	7467334	47	-1.7378093957643
1174	7698831	48	-1.3740283211083
1174	7931497	49	-0.54115744707823
1174	8164726	50	0.00992003939119
1174	8396203	51	0.58767899469757
1174	8628253	52	0.9621247854754
1174	8858766	53	1.245328435417
1174	9090904	54	0.9092131993871
1174	9321266	55	0.63675690454783
1174	9554138	56	0.55387173204356
1174	9784561	57	0.49407804319556
1174	10015123	58	0.53515571336301
1174	10245267	59	0.29741975031115
1174	10476059	60	0.48299619771874
1173	1497145	20	3.3557482195866
1173	1652844	21	5.491362885778
1173	1813749	22	7.6028528925904
1173	1977322	23	9.6353316537442
1173	2154164	24	11.614621397102
1173	2337751	25	13.546048149351
1173	2527165	26	15.455110863486
1173	2721473	27	17.337953656752
1173	2923548	28	18.900839869955
1173	3139348	29	18.877024386618
1173	3364851	30	18.952571187257
1173	3590985	31	18.951462822547
1173	3985652	32	18.999564682378
1173	4218326	33	18.960305044425
1173	4451433	34	18.995301506615
1173	4685996	35	18.927511636852
1173	4920115	36	18.934942653794
1173	5154758	37	18.999923923542
1173	5387901	38	18.97308804733
1173	5621713	39	18.883737350099
1173	5853051	40	18.965233558384
1173	6086137	41	18.939649786479
1173	6315507	42	18.068406892552
1173	6547193	43	18.087442144894
1173	6776197	44	16.781661667021
1173	7006542	45	15.569491384477
1173	7235672	46	13.33667312046
1173	7467334	47	11.598863724695
1173	7698831	48	10.224835403587
1173	7931497	49	9.683677956509
1173	8164726	50	9.6935979959001
1173	8396203	51	10.281276990598
1173	8628253	52	11.243401776073
1173	8858766	53	12.48873021149
1173	9090904	54	13.397943410877
1173	9321266	55	14.034700315425
1173	9554138	56	14.588572047469
1173	9784561	57	15.082650090664
1173	10015123	58	15.617805804027
1173	10245267	59	15.915225554338
1173	10476059	60	16.398221752057
1172	1350432	19	516.75
1172	1497145	20	516.75
1172	1652844	21	516.75
1172	1813749	22	516.75
1172	1977322	23	516.75
1172	2154164	24	516.75
1172	2337751	25	516.75
1172	2527165	26	516.75
1172	2721473	27	516.75
1172	2923548	28	516.75
1172	3139348	29	516.75
1172	3364851	30	516.75
1172	3590985	31	516.75
1172	3985652	32	516.75
1172	4218326	33	516.75
1172	4451433	34	516.75
1172	4685996	35	516.75
1172	4920115	36	516.75
1172	5154758	37	516.75
1172	5387901	38	516.75
1172	5621713	39	516.75
1172	5853051	40	516.75
1172	6086137	41	516.75
1172	6315507	42	516.75
1172	6547193	43	516.75
1172	6776197	44	516.75
1172	7006542	45	516.75
1172	7235672	46	516.75
1172	7467334	47	516.75
1172	7698831	48	516.75
1172	7931497	49	516.75
1172	8164726	50	516.75
1172	8396203	51	516.75
1172	8628253	52	516.75
1172	8858766	53	516.75
1172	9090904	54	516.75
1172	9321266	55	516.75
1172	9554138	56	516.75
1172	9784561	57	516.75
1172	10015123	58	516.75
1172	10245267	59	516.75
1172	10476059	60	516.75
1171	1350432	19	1022.0301223929
1171	1497145	20	1022.0301223929
1171	1652844	21	1019.5999379781
1171	1813749	22	1015.0700258381
1171	1977322	23	1008.4517329913
1171	2154164	24	999.72954820001
1171	2337751	25	989.07438661176
1171	2527165	26	976.39697633802
1171	2721473	27	961.82677880217
1171	2923548	28	945.36544511893
1171	3139348	29	927.01405822887
1171	3364851	30	908.08731410499
1171	3590985	31	889.15489809776
1171	3985652	32	870.22216798169
1171	4218326	33	851.27613134067
1171	4451433	34	832.3303871677
1171	4685996	35	813.39509931841
1171	4920115	36	794.4484746149
1171	5154758	37	775.52410028274
1171	5387901	38	756.59280667697
1171	5621713	39	737.66449653262
1171	5853051	40	718.73254886217
1171	6086137	41	699.78583258532
1171	6315507	42	680.84716670418
1171	6547193	43	662.12357505948
1171	6776197	44	644.32356463772
1171	7006542	45	626.88771229524
1171	7235672	46	610.4452857174
1171	7467334	47	596.12265230938
1171	7698831	48	583.75110800048
1171	7931497	49	572.90888901042
1171	8164726	50	563.05158170869
1171	8396203	51	553.41973718936
1171	8628253	52	543.44934738385
1171	8858766	53	532.64992712818
1171	9090904	54	520.6740053756
1171	9321266	55	507.71791317682
1171	9554138	56	494.04714859581
1171	9784561	57	479.75526503164
1171	10015123	58	464.89420249137
1171	10245267	59	449.54177106014
1171	10476059	60	433.73361650199
1231	1977322	23	3.8677011846555
1231	2154164	24	4.2942811393831
1231	2337751	25	5.3405321480251
1231	2527165	26	6.2389118474958
1231	2721473	27	8.3498519794533
1231	2923548	28	9.3934455122852
1231	3139348	29	10.881928887282
1231	3364851	30	11.772803564808
1231	3590985	31	3.0623425032563
1231	3985652	32	2.5341846544925
1231	4218326	33	2.559601712092
1231	4451433	34	2.7739125933632
1231	4685996	35	2.357661026054
1231	4920115	36	2.8380804507159
1231	5154758	37	2.715980551427
1231	5387901	38	2.9301897070365
1231	5621713	39	2.1313778799875
1231	5853051	40	3.1715453864723
1231	6086137	41	2.4967630903419
1231	6315507	42	2.8137016357796
1231	6547193	43	2.3526488033652
1231	6776197	44	2.7020632841273
1231	7006542	45	2.805875520971
1231	7235672	46	0.973
1231	7467334	47	0.973
1231	7698831	48	0.973
1231	7931497	49	0.973
1231	8164726	50	0.973
1231	8396203	51	1.2191429180566
1231	8628253	52	3.0225535840192
1231	8858766	53	3.8371517979278
1231	9090904	54	4.066599171637
1231	9321266	55	4.1402942650207
1231	9554138	56	3.9013066313864
1231	9784561	57	3.2502038668895
1231	10015123	58	3.796201901497
1231	10245267	59	4.2032551524124
1231	10476059	60	3.422359030021
1230	1977322	23	1.882553797646
1230	2154164	24	1.6402901837439
1230	2337751	25	1.7518751379661
1230	2527165	26	1.7610616160254
1230	2721473	27	2.1000327823032
1230	2923548	28	2.0446523583727
1230	3139348	29	2.0961114637111
1230	3364851	30	2.0084872874408
1230	3590985	31	0.089453201193379
1230	3985652	32	-0.025371306005397
1230	4218326	33	-0.019199138833212
1230	4451433	34	0.026913571886254
1230	4685996	35	-0.062476139746142
1230	4920115	36	0.041690279021861
1230	5154758	37	0.014431107903363
1230	5387901	38	0.059273027013987
1230	5621713	39	-0.1123000999284
1230	5853051	40	0.11201716032578
1230	6086137	41	-0.034367598942481
1230	6315507	42	0.033849164377898
1230	6547193	43	-0.065012000347487
1230	6776197	44	0.011226462612395
1230	7006542	45	0.032852661963553
1230	7235672	46	-1.9134694921698
1230	7467334	47	-1.950153396324
1230	7698831	48	-1.5357039440037
1230	7931497	49	-1.2373564358076
1230	8164726	50	-0.59031125719059
1230	8396203	51	-0.21185540994036
1230	8628253	52	0.40980035581687
1230	8858766	53	0.63875031712172
1230	9090904	54	0.65933842300145
1230	9321266	55	0.63255156942464
1230	9554138	56	0.52492789403794
1230	9784561	57	0.3202628714367
1230	10015123	58	0.44677714751112
1230	10245267	59	0.52371399199169
1230	10476059	60	0.30194029441495
1229	1813749	22	3.5815561515633
1229	1977322	23	5.4641099492092
1229	2154164	24	7.1044001329532
1229	2337751	25	8.8562752709193
1229	2527165	26	10.617336886945
1229	2721473	27	12.717369669248
1229	2923548	28	14.762022027621
1229	3139348	29	16.858133491332
1229	3364851	30	18.866620778772
1229	3590985	31	18.956073979966
1229	3985652	32	18.93070267396
1229	4218326	33	18.911503535127
1229	4451433	34	18.938417107014
1229	4685996	35	18.875940967267
1229	4920115	36	18.917631246289
1229	5154758	37	18.932062354193
1229	5387901	38	18.991335381207
1229	5621713	39	18.879035281278
1229	5853051	40	18.991052441604
1229	6086137	41	18.956684842661
1229	6315507	42	18.990534007039
1229	6547193	43	18.925522006692
1229	6776197	44	18.936748469304
1229	7006542	45	18.969601131268
1229	7235672	46	17.056131639098
1229	7467334	47	15.105978242774
1229	7698831	48	13.57027429877
1229	7931497	49	12.332917862963
1229	8164726	50	11.742606605772
1229	8396203	51	11.530751195832
1229	8628253	52	11.940551551649
1229	8858766	53	12.57930186877
1229	9090904	54	13.238640291772
1229	9321266	55	13.871191861196
1229	9554138	56	14.396119755234
1229	9784561	57	14.716382626671
1229	10015123	58	15.163159774182
1229	10245267	59	15.686873766174
1229	10476059	60	15.988814060589
1228	1652844	21	516.75
1228	1813749	22	516.75
1228	1977322	23	516.75
1228	2154164	24	516.75
1228	2337751	25	516.75
1228	2527165	26	516.75
1228	2721473	27	516.75
1228	2923548	28	516.75
1228	3139348	29	516.75
1228	3364851	30	516.75
1228	3590985	31	516.75
1228	3985652	32	516.75
1228	4218326	33	516.75
1228	4451433	34	516.75
1228	4685996	35	516.75
1228	4920115	36	516.75
1228	5154758	37	516.75
1228	5387901	38	516.75
1228	5621713	39	516.75
1228	5853051	40	516.75
1228	6086137	41	516.75
1228	6315507	42	516.75
1228	6547193	43	516.75
1228	6776197	44	516.75
1228	7006542	45	516.75
1228	7235672	46	516.75
1228	7467334	47	516.75
1228	7698831	48	516.75
1228	7931497	49	516.75
1228	8164726	50	516.75
1228	8396203	51	516.75
1228	8628253	52	516.75
1228	8858766	53	516.75
1228	9090904	54	516.75
1228	9321266	55	516.75
1228	9554138	56	516.75
1228	9784561	57	516.75
1228	10015123	58	516.75
1228	10245267	59	516.75
1228	10476059	60	516.75
1227	1652844	21	1021.5639853999
1227	1813749	22	1021.5639853999
1227	1977322	23	1018.7959860005
1227	2154164	24	1014.2308528414
1227	2337751	25	1007.891059054
1227	2527165	26	999.83770183489
1227	2721473	27	990.00164531386
1227	2923548	28	978.16884754498
1227	3139348	29	964.3205190245
1227	3364851	30	948.33256084241
1227	3590985	31	930.43825375499
1227	3985652	32	911.4949127711
1227	4218326	33	892.55875836142
1227	4451433	34	873.63433506154
1227	4685996	35	854.71000987495
1227	4920115	36	835.78273533983
1227	5154758	37	816.85726254194
1227	5387901	38	797.90870130069
1227	5621713	39	778.98183852756
1227	5853051	40	760.04721428064
1227	6086137	41	741.11414306205
1227	6315507	42	722.16647738374
1227	6547193	43	703.23429255256
1227	6776197	44	684.29153185449
1227	7006542	45	665.35870392064
1227	7235672	46	646.3993263259
1227	7467334	47	628.40517942276
1227	7698831	48	612.40909741193
1227	7931497	49	598.14841471628
1227	8164726	50	585.31290459727
1227	8396203	51	573.36741451588
1227	8628253	52	561.79223416155
1227	8858766	53	550.07059691489
1227	9090904	54	537.76157577721
1227	9321266	55	524.79452559258
1227	9554138	56	511.22568767267
1227	9784561	57	497.16373382973
1227	10015123	58	482.60438487205
1227	10245267	59	467.58038922999
1227	10476059	60	452.12194713699
1245	2154164	24	3.3405828348056
1245	2337751	25	4.5946544722034
1245	2527165	26	5.8080077821421
1245	2721473	27	7.0847371913696
1245	2923548	28	7.3917833262019
1245	3139348	29	8.6149289053531
1245	3364851	30	9.8000711805634
1245	3590985	31	10.750113891002
1245	3985652	32	6.500019658096
1245	4218326	33	2.7133888571628
1245	4451433	34	2.4539593427191
1245	4685996	35	3.0728537470299
1245	4920115	36	2.5923449244697
1245	5154758	37	2.7140497517014
1245	5387901	38	2.239956088889
1245	5621713	39	2.8004026356396
1245	5853051	40	2.6489295160759
1245	6086137	41	2.5065089729708
1245	6315507	42	2.7566887669531
1245	6547193	43	2.7444756132656
1245	6776197	44	2.4562548653686
1245	7006542	45	2.7906224766462
1245	7235672	46	0.973
1245	7467334	47	0.973
1245	7698831	48	7.8898315878971
1245	7931497	49	0.973
1245	8164726	50	0.973
1245	8396203	51	0.973
1245	8628253	52	0.973
1245	8858766	53	3.0510777535633
1245	9090904	54	4.3779892895631
1245	9321266	55	6.1351254612122
1245	9554138	56	8.289009985521
1245	9784561	57	10.618365104794
1245	10015123	58	6.7323228863455
1245	10245267	59	3.2197731870262
1245	10476059	60	2.2852922393108
1244	2154164	24	1.9796642058007
1244	2337751	25	2.0763898287131
1244	2527165	26	2.0929232014809
1244	2721473	27	2.1147708464251
1244	2923548	28	1.8490855900757
1244	3139348	29	1.9040541440831
1244	3364851	30	1.9257227184298
1244	3590985	31	1.8866436578147
1244	3985652	32	0.84421743451647
1244	4218326	33	0.013598634169902
1244	4451433	34	-0.041974285661709
1244	4685996	35	0.090543947562111
1244	4920115	36	-0.014013255240862
1244	5154758	37	0.012198352192062
1244	5387901	38	-0.088955869120547
1244	5621713	39	0.03297594784992
1244	5853051	40	-0.00021782808471471
1244	6086137	41	-0.030498599680143
1244	6315507	42	0.023632375625894
1244	6547193	43	0.020276502741037
1244	6776197	44	-0.041601035415663
1244	7006542	45	0.030752643921879
1244	7235672	46	-0.71101064703823
1244	7467334	47	-0.90275202486107
1244	7698831	48	1.1885319023436
1244	7931497	49	-2.5299049058435
1244	8164726	50	-1.9431436705479
1244	8396203	51	-1.2401836033678
1244	8628253	52	-0.50352886400703
1244	8858766	53	0.37426889439192
1244	9090904	54	0.74229116907772
1244	9321266	55	1.1508153236595
1244	9554138	56	1.5496438655215
1244	9784561	57	1.8704185609799
1244	10015123	58	0.89904013142474
1244	10245267	59	0.12221195729915
1244	10476059	60	-0.079631332401188
1243	1977322	23	2.2529883940338
1243	2154164	24	4.2326525998345
1243	2337751	25	6.3090424285477
1243	2527165	26	8.4019656300286
1243	2721473	27	10.516736476454
1243	2923548	28	12.365822066529
1243	3139348	29	14.269876210612
1243	3364851	30	16.195598929042
1243	3590985	31	18.082242586857
1243	3985652	32	18.926460021373
1243	4218326	33	18.940058655543
1243	4451433	34	18.898084369882
1243	4685996	35	18.988628317444
1243	4920115	36	18.974615062203
1243	5154758	37	18.986813414395
1243	5387901	38	18.897857545274
1243	5621713	39	18.930833493124
1243	5853051	40	18.93061566504
1243	6086137	41	18.900117065359
1243	6315507	42	18.923749440985
1243	6547193	43	18.944025943726
1243	6776197	44	18.902424908311
1243	7006542	45	18.933177552233
1243	7235672	46	18.222166905194
1243	7467334	47	17.319414880333
1243	7698831	48	18.507946782677
1243	7931497	49	15.978041876833
1243	8164726	50	14.034898206285
1243	8396203	51	12.794714602918
1243	8628253	52	12.291185738911
1243	8858766	53	12.665454633302
1243	9090904	54	13.40774580238
1243	9321266	55	14.55856112604
1243	9554138	56	16.108204991561
1243	9784561	57	17.978623552541
1243	10015123	58	18.877663683966
1243	10245267	59	18.999875641265
1243	10476059	60	18.920244308864
1242	1813749	22	516.75
1242	1977322	23	516.75
1242	2154164	24	516.75
1242	2337751	25	516.75
1242	2527165	26	516.75
1242	2721473	27	516.75
1242	2923548	28	516.75
1242	3139348	29	516.75
1242	3364851	30	516.75
1242	3590985	31	516.75
1242	3985652	32	516.75
1242	4218326	33	516.75
1242	4451433	34	516.75
1242	4685996	35	516.75
1242	4920115	36	516.75
1242	5154758	37	516.75
1242	5387901	38	516.75
1242	5621713	39	516.75
1242	5853051	40	516.75
1242	6086137	41	516.75
1242	6315507	42	516.75
1242	6547193	43	516.75
1242	6776197	44	516.75
1242	7006542	45	516.75
1242	7235672	46	516.75
1242	7467334	47	516.75
1242	7698831	48	520.05
1242	7931497	49	520.05
1242	8164726	50	520.05
1242	8396203	51	520.05
1242	8628253	52	520.05
1242	8858766	53	520.05
1242	9090904	54	520.05
1242	9321266	55	520.05
1242	9554138	56	520.05
1242	9784561	57	520.05
1242	10015123	58	520.05
1242	10245267	59	520.05
1242	10476059	60	520.05
1241	1813749	22	1022.4
1241	1977322	23	1022.4
1241	2154164	24	1021.0966894445
1241	2337751	25	1017.7328103203
1241	2527165	26	1012.4175982897
1241	2721473	27	1004.9431514441
1241	2923548	28	995.38430033949
1241	3139348	29	983.78897312522
1241	3364851	30	970.38567480554
1241	3590985	31	955.03843983275
1241	3985652	32	937.84125541317
1241	4218326	33	919.04249657506
1241	4451433	34	900.11670773555
1241	4685996	35	881.17171951051
1241	4920115	36	862.2368200923
1241	5154758	37	843.30289684748
1241	5387901	38	824.35417598083
1241	5621713	39	805.43517225514
1241	5853051	40	786.49256729512
1241	6086137	41	767.57215680842
1241	6315507	42	748.6238684436
1241	6547193	43	729.70394933196
1241	6776197	44	710.76944540875
1241	7006542	45	691.83111927919
1241	7235672	46	672.91261517796
1241	7467334	47	654.14646830355
1241	7698831	48	636.71877078008
1241	7931497	49	618.49323816255
1241	8164726	50	601.42580650646
1241	8396203	51	586.59506898081
1241	8628253	52	573.34626218837
1241	8858766	53	560.87223917285
1241	9090904	54	548.39678778401
1241	9321266	55	535.41710424243
1241	9554138	56	521.44120598749
1241	9784561	57	506.07942339226
1241	10015123	58	488.88069209615
1241	10245267	59	470.14473782867
1241	10476059	60	451.21284597073
