version 2
run WithoutChSw-slotted-0-20180208-16:39:33-23280
attr configname WithoutChSw-slotted
attr datetime 20180208-16:39:33
attr experiment WithoutChSw-slotted
attr inifile omnetpp.ini
attr iterationvars $0=0.1s
attr iterationvarsf 0.1s-
attr measurement $0=0.1s
attr network Scenario2
attr processid 23280
attr repetition 0
attr replication #0
attr resultdir results
attr runnumber 0
attr seedset 0
param **.coreDebug false
param **.debug false
param *.**.nic.mac1609_4.bitrate 6Mbps
param *.**.nic.mac1609_4.txPower 20mW
param *.**.nic.mac1609_4.useServiceChannel false
param *.**.nic.phy80211p.analogueModels "xmldoc(\"config.xml\")"
param *.**.nic.phy80211p.antenna "xmldoc(\"antenna.xml\", \"/root/Antenna[@id='monopole']\")"
param *.**.nic.phy80211p.collectCollisionStatistics true
param *.**.nic.phy80211p.decider "xmldoc(\"config.xml\")"
param *.**.nic.phy80211p.sensitivity -89dBm
param *.**.nic.phy80211p.thermalNoise -110dBm
param *.**.nic.phy80211p.usePropagationDelay true
param *.**.nic.phy80211p.useThermalNoise true
param *.annotations.draw true
param *.connectionManager.drawMaxIntfDist false
param *.connectionManager.maxInterfDist 2600m
param *.connectionManager.sendDirect true
param *.manager.autoShutdown true
param *.manager.host "\"localhost\""
param *.manager.launchConfig "xmldoc(\"mycross.launchd.xml\")"
param *.manager.port 9999
param *.manager.updateInterval 1s
param *.node[*].appl.Slotted1Enabled true
param *.node[*].appl.Slotted_Ns 5
param *.node[*].appl.Slotted_R 500
param *.node[*].appl.Slotted_tau 0.005
param *.node[*].appl.beaconInterval 1s
param *.node[*].appl.dataOnSch false
param *.node[*].appl.headerLength "80 bit"
param *.node[*].appl.sendBeacons true
param *.node[*].applType "\"myWaveAppLayer\""
param *.node[*].veinsmobility.x 0
param *.node[*].veinsmobility.y 0
param *.node[*].veinsmobility.z 1.895
param *.node[*].veinsmobilityType.debug true
param *.node[20].appl.Accident_start 30
param *.node[40].veinsmobility.accidentCount 1
param *.node[40].veinsmobility.accidentDuration 40s
param *.node[40].veinsmobility.accidentStart 30s
param *.obstacles.debug false
param *.playgroundSizeX 2500m
param *.playgroundSizeY 2500m
param *.playgroundSizeZ 50m
param *.rsu[*].appl.beaconInterval 0.1s
param *.rsu[*].appl.beaconUserPriority 7
param *.rsu[*].appl.dataOnSch false
param *.rsu[*].appl.dataUserPriority 5
param *.rsu[*].appl.headerLength "80 bit"
param *.rsu[*].appl.sendBeacons false
param *.rsu[*].applType "\"TraCIDemoRSU11p\""
param *.rsu[0].mobility.x 500
param *.rsu[0].mobility.y 500
param *.rsu[0].mobility.z 3

scalar Scenario2.node[18].appl 	generatedWSMs 	0
scalar Scenario2.node[18].appl 	receivedWSMs 	4
scalar Scenario2.node[18].appl 	generatedBSMs 	330
scalar Scenario2.node[18].appl 	receivedBSMs 	22629
scalar Scenario2.node[18].appl 	generatedWSAs 	0
scalar Scenario2.node[18].appl 	receivedWSAs 	0
scalar Scenario2.node[18].appl 	delayWSM 	2.048982372917
scalar Scenario2.node[18].appl 	Dist_Propa 	510.34686037717
scalar Scenario2.node[18].nic.phy80211p 	busyTime 	0.07637187878789
scalar Scenario2.node[18].nic.phy80211p 	ncollisions 	921
scalar Scenario2.node[18].nic.mac1609_4 	ReceivedUnicastPackets 	0
scalar Scenario2.node[18].nic.mac1609_4 	ReceivedBroadcasts 	22633
scalar Scenario2.node[18].nic.mac1609_4 	SentPackets 	330
scalar Scenario2.node[18].nic.mac1609_4 	SNIRLostPackets 	1593
scalar Scenario2.node[18].nic.mac1609_4 	RXTXLostPackets 	0
scalar Scenario2.node[18].nic.mac1609_4 	TotalLostPackets 	1593
scalar Scenario2.node[18].nic.mac1609_4 	DroppedPacketsInMac 	0
scalar Scenario2.node[18].nic.mac1609_4 	TooLittleTime 	0
scalar Scenario2.node[18].nic.mac1609_4 	TimesIntoBackoff 	330
scalar Scenario2.node[18].nic.mac1609_4 	SlotsBackoff 	500
scalar Scenario2.node[18].nic.mac1609_4 	NumInternalContention 	0
scalar Scenario2.node[18].nic.mac1609_4 	totalBusyTime 	2.485034
scalar Scenario2.node[18].veinsmobility 	startTime 	1
scalar Scenario2.node[18].veinsmobility 	totalTime 	32
scalar Scenario2.node[18].veinsmobility 	stopTime 	34
scalar Scenario2.node[18].veinsmobility 	minSpeed 	2.6377290236039
scalar Scenario2.node[18].veinsmobility 	maxSpeed 	18.998816868074
scalar Scenario2.node[18].veinsmobility 	totalDistance 	522.11524646103
scalar Scenario2.node[18].veinsmobility 	totalCO2Emission 	121.58310432878
scalar Scenario2.node[72].appl 	generatedWSMs 	0
scalar Scenario2.node[72].appl 	receivedWSMs 	0
scalar Scenario2.node[72].appl 	generatedBSMs 	320
scalar Scenario2.node[72].appl 	receivedBSMs 	21361
scalar Scenario2.node[72].appl 	generatedWSAs 	0
scalar Scenario2.node[72].appl 	receivedWSAs 	0
scalar Scenario2.node[72].appl 	delayWSM 	-1
scalar Scenario2.node[72].appl 	Dist_Propa 	-1
scalar Scenario2.node[72].nic.phy80211p 	busyTime 	0.074327500000016
scalar Scenario2.node[72].nic.phy80211p 	ncollisions 	853
scalar Scenario2.node[72].nic.mac1609_4 	ReceivedUnicastPackets 	0
scalar Scenario2.node[72].nic.mac1609_4 	ReceivedBroadcasts 	21361
scalar Scenario2.node[72].nic.mac1609_4 	SentPackets 	320
scalar Scenario2.node[72].nic.mac1609_4 	SNIRLostPackets 	1509
scalar Scenario2.node[72].nic.mac1609_4 	RXTXLostPackets 	0
scalar Scenario2.node[72].nic.mac1609_4 	TotalLostPackets 	1509
scalar Scenario2.node[72].nic.mac1609_4 	DroppedPacketsInMac 	0
scalar Scenario2.node[72].nic.mac1609_4 	TooLittleTime 	0
scalar Scenario2.node[72].nic.mac1609_4 	TimesIntoBackoff 	320
scalar Scenario2.node[72].nic.mac1609_4 	SlotsBackoff 	493
scalar Scenario2.node[72].nic.mac1609_4 	NumInternalContention 	0
scalar Scenario2.node[72].nic.mac1609_4 	totalBusyTime 	2.343856
scalar Scenario2.node[72].veinsmobility 	startTime 	3
scalar Scenario2.node[72].veinsmobility 	totalTime 	31
scalar Scenario2.node[72].veinsmobility 	stopTime 	35
scalar Scenario2.node[72].veinsmobility 	minSpeed 	4.160416336859
scalar Scenario2.node[72].veinsmobility 	maxSpeed 	18.998247401568
scalar Scenario2.node[72].veinsmobility 	totalDistance 	514.99453362875
scalar Scenario2.node[72].veinsmobility 	totalCO2Emission 	118.9178712817
scalar Scenario2.node[19].appl 	generatedWSMs 	1
scalar Scenario2.node[19].appl 	receivedWSMs 	28
scalar Scenario2.node[19].appl 	generatedBSMs 	350
scalar Scenario2.node[19].appl 	receivedBSMs 	24900
scalar Scenario2.node[19].appl 	generatedWSAs 	0
scalar Scenario2.node[19].appl 	receivedWSAs 	0
scalar Scenario2.node[19].appl 	delayWSM 	2.034704034672
scalar Scenario2.node[19].appl 	Dist_Propa 	616.63549094928
scalar Scenario2.node[19].nic.phy80211p 	busyTime 	0.079298285714288
scalar Scenario2.node[19].nic.phy80211p 	ncollisions 	984
scalar Scenario2.node[19].nic.mac1609_4 	ReceivedUnicastPackets 	0
scalar Scenario2.node[19].nic.mac1609_4 	ReceivedBroadcasts 	24928
scalar Scenario2.node[19].nic.mac1609_4 	SentPackets 	351
scalar Scenario2.node[19].nic.mac1609_4 	SNIRLostPackets 	1722
scalar Scenario2.node[19].nic.mac1609_4 	RXTXLostPackets 	0
scalar Scenario2.node[19].nic.mac1609_4 	TotalLostPackets 	1722
scalar Scenario2.node[19].nic.mac1609_4 	DroppedPacketsInMac 	0
scalar Scenario2.node[19].nic.mac1609_4 	TooLittleTime 	0
scalar Scenario2.node[19].nic.mac1609_4 	TimesIntoBackoff 	352
scalar Scenario2.node[19].nic.mac1609_4 	SlotsBackoff 	505
scalar Scenario2.node[19].nic.mac1609_4 	NumInternalContention 	0
scalar Scenario2.node[19].nic.mac1609_4 	totalBusyTime 	2.735671
scalar Scenario2.node[19].veinsmobility 	startTime 	1
scalar Scenario2.node[19].veinsmobility 	totalTime 	34
scalar Scenario2.node[19].veinsmobility 	stopTime 	36
scalar Scenario2.node[19].veinsmobility 	minSpeed 	2.7469869994252
scalar Scenario2.node[19].veinsmobility 	maxSpeed 	18.980967045685
scalar Scenario2.node[19].veinsmobility 	totalDistance 	552.79239116376
scalar Scenario2.node[19].veinsmobility 	totalCO2Emission 	125.79905284345
scalar Scenario2.node[81].appl 	generatedWSMs 	1
scalar Scenario2.node[81].appl 	receivedWSMs 	28
scalar Scenario2.node[81].appl 	generatedBSMs 	320
scalar Scenario2.node[81].appl 	receivedBSMs 	23772
scalar Scenario2.node[81].appl 	generatedWSAs 	0
scalar Scenario2.node[81].appl 	receivedWSAs 	0
scalar Scenario2.node[81].appl 	delayWSM 	2.034704015137
scalar Scenario2.node[81].appl 	Dist_Propa 	384.63642010516
scalar Scenario2.node[81].nic.phy80211p 	busyTime 	0.082507500000007
scalar Scenario2.node[81].nic.phy80211p 	ncollisions 	899
scalar Scenario2.node[81].nic.mac1609_4 	ReceivedUnicastPackets 	0
scalar Scenario2.node[81].nic.mac1609_4 	ReceivedBroadcasts 	23800
scalar Scenario2.node[81].nic.mac1609_4 	SentPackets 	321
scalar Scenario2.node[81].nic.mac1609_4 	SNIRLostPackets 	1550
scalar Scenario2.node[81].nic.mac1609_4 	RXTXLostPackets 	0
scalar Scenario2.node[81].nic.mac1609_4 	TotalLostPackets 	1550
scalar Scenario2.node[81].nic.mac1609_4 	DroppedPacketsInMac 	0
scalar Scenario2.node[81].nic.mac1609_4 	TooLittleTime 	0
scalar Scenario2.node[81].nic.mac1609_4 	TimesIntoBackoff 	322
scalar Scenario2.node[81].nic.mac1609_4 	SlotsBackoff 	485
scalar Scenario2.node[81].nic.mac1609_4 	NumInternalContention 	0
scalar Scenario2.node[81].nic.mac1609_4 	totalBusyTime 	2.606369
scalar Scenario2.node[81].veinsmobility 	startTime 	4
scalar Scenario2.node[81].veinsmobility 	totalTime 	31
scalar Scenario2.node[81].veinsmobility 	stopTime 	36
scalar Scenario2.node[81].veinsmobility 	minSpeed 	2.9169091988617
scalar Scenario2.node[81].veinsmobility 	maxSpeed 	18.976269957249
scalar Scenario2.node[81].veinsmobility 	totalDistance 	505.13364217523
scalar Scenario2.node[81].veinsmobility 	totalCO2Emission 	119.23000791163
scalar Scenario2.node[33].appl 	generatedWSMs 	1
scalar Scenario2.node[33].appl 	receivedWSMs 	31
scalar Scenario2.node[33].appl 	generatedBSMs 	360
scalar Scenario2.node[33].appl 	receivedBSMs 	27253
scalar Scenario2.node[33].appl 	generatedWSAs 	0
scalar Scenario2.node[33].appl 	receivedWSAs 	0
scalar Scenario2.node[33].appl 	delayWSM 	2.034703953379
scalar Scenario2.node[33].appl 	Dist_Propa 	642.59379735789
scalar Scenario2.node[33].nic.phy80211p 	busyTime 	0.08422155555555
scalar Scenario2.node[33].nic.phy80211p 	ncollisions 	1033
scalar Scenario2.node[33].nic.mac1609_4 	ReceivedUnicastPackets 	0
scalar Scenario2.node[33].nic.mac1609_4 	ReceivedBroadcasts 	27284
scalar Scenario2.node[33].nic.mac1609_4 	SentPackets 	361
scalar Scenario2.node[33].nic.mac1609_4 	SNIRLostPackets 	1829
scalar Scenario2.node[33].nic.mac1609_4 	RXTXLostPackets 	0
scalar Scenario2.node[33].nic.mac1609_4 	TotalLostPackets 	1829
scalar Scenario2.node[33].nic.mac1609_4 	DroppedPacketsInMac 	0
scalar Scenario2.node[33].nic.mac1609_4 	TooLittleTime 	0
scalar Scenario2.node[33].nic.mac1609_4 	TimesIntoBackoff 	361
scalar Scenario2.node[33].nic.mac1609_4 	SlotsBackoff 	532
scalar Scenario2.node[33].nic.mac1609_4 	NumInternalContention 	0
scalar Scenario2.node[33].nic.mac1609_4 	totalBusyTime 	2.987225
scalar Scenario2.node[33].veinsmobility 	startTime 	1
scalar Scenario2.node[33].veinsmobility 	totalTime 	35
scalar Scenario2.node[33].veinsmobility 	stopTime 	37
scalar Scenario2.node[33].veinsmobility 	minSpeed 	0.7030855698499
scalar Scenario2.node[33].veinsmobility 	maxSpeed 	18.994416443501
scalar Scenario2.node[33].veinsmobility 	totalDistance 	543.99849859273
scalar Scenario2.node[33].veinsmobility 	totalCO2Emission 	128.19238520245
scalar Scenario2.node[24].appl 	generatedWSMs 	1
scalar Scenario2.node[24].appl 	receivedWSMs 	31
scalar Scenario2.node[24].appl 	generatedBSMs 	360
scalar Scenario2.node[24].appl 	receivedBSMs 	27306
scalar Scenario2.node[24].appl 	generatedWSAs 	0
scalar Scenario2.node[24].appl 	receivedWSAs 	0
scalar Scenario2.node[24].appl 	delayWSM 	2.034703939558
scalar Scenario2.node[24].appl 	Dist_Propa 	648.79252731717
scalar Scenario2.node[24].nic.phy80211p 	busyTime 	0.084394888888883
scalar Scenario2.node[24].nic.phy80211p 	ncollisions 	1045
scalar Scenario2.node[24].nic.mac1609_4 	ReceivedUnicastPackets 	0
scalar Scenario2.node[24].nic.mac1609_4 	ReceivedBroadcasts 	27337
scalar Scenario2.node[24].nic.mac1609_4 	SentPackets 	361
scalar Scenario2.node[24].nic.mac1609_4 	SNIRLostPackets 	1836
scalar Scenario2.node[24].nic.mac1609_4 	RXTXLostPackets 	0
scalar Scenario2.node[24].nic.mac1609_4 	TotalLostPackets 	1836
scalar Scenario2.node[24].nic.mac1609_4 	DroppedPacketsInMac 	0
scalar Scenario2.node[24].nic.mac1609_4 	TooLittleTime 	0
scalar Scenario2.node[24].nic.mac1609_4 	TimesIntoBackoff 	361
scalar Scenario2.node[24].nic.mac1609_4 	SlotsBackoff 	535
scalar Scenario2.node[24].nic.mac1609_4 	NumInternalContention 	0
scalar Scenario2.node[24].nic.mac1609_4 	totalBusyTime 	2.993985
scalar Scenario2.node[24].veinsmobility 	startTime 	1
scalar Scenario2.node[24].veinsmobility 	totalTime 	35
scalar Scenario2.node[24].veinsmobility 	stopTime 	37
scalar Scenario2.node[24].veinsmobility 	minSpeed 	2.8351305318164
scalar Scenario2.node[24].veinsmobility 	maxSpeed 	18.986858689971
scalar Scenario2.node[24].veinsmobility 	totalDistance 	519.79892566372
scalar Scenario2.node[24].veinsmobility 	totalCO2Emission 	125.60350843403
scalar Scenario2.node[38].appl 	generatedWSMs 	1
scalar Scenario2.node[38].appl 	receivedWSMs 	33
scalar Scenario2.node[38].appl 	generatedBSMs 	370
scalar Scenario2.node[38].appl 	receivedBSMs 	29532
scalar Scenario2.node[38].appl 	generatedWSAs 	0
scalar Scenario2.node[38].appl 	receivedWSAs 	0
scalar Scenario2.node[38].appl 	delayWSM 	2.034703877713
scalar Scenario2.node[38].appl 	Dist_Propa 	666.74475218913
scalar Scenario2.node[38].nic.phy80211p 	busyTime 	0.089012972972959
scalar Scenario2.node[38].nic.phy80211p 	ncollisions 	1081
scalar Scenario2.node[38].nic.mac1609_4 	ReceivedUnicastPackets 	0
scalar Scenario2.node[38].nic.mac1609_4 	ReceivedBroadcasts 	29565
scalar Scenario2.node[38].nic.mac1609_4 	SentPackets 	371
scalar Scenario2.node[38].nic.mac1609_4 	SNIRLostPackets 	2060
scalar Scenario2.node[38].nic.mac1609_4 	RXTXLostPackets 	0
scalar Scenario2.node[38].nic.mac1609_4 	TotalLostPackets 	2060
scalar Scenario2.node[38].nic.mac1609_4 	DroppedPacketsInMac 	0
scalar Scenario2.node[38].nic.mac1609_4 	TooLittleTime 	0
scalar Scenario2.node[38].nic.mac1609_4 	TimesIntoBackoff 	372
scalar Scenario2.node[38].nic.mac1609_4 	SlotsBackoff 	556
scalar Scenario2.node[38].nic.mac1609_4 	NumInternalContention 	0
scalar Scenario2.node[38].nic.mac1609_4 	totalBusyTime 	3.230747
scalar Scenario2.node[38].veinsmobility 	startTime 	1
scalar Scenario2.node[38].veinsmobility 	totalTime 	36
scalar Scenario2.node[38].veinsmobility 	stopTime 	38
scalar Scenario2.node[38].veinsmobility 	minSpeed 	3.8436146157379
scalar Scenario2.node[38].veinsmobility 	maxSpeed 	18.956129539851
scalar Scenario2.node[38].veinsmobility 	totalDistance 	572.52570590264
scalar Scenario2.node[38].veinsmobility 	totalCO2Emission 	127.13910885386
scalar Scenario2.node[77].appl 	generatedWSMs 	1
scalar Scenario2.node[77].appl 	receivedWSMs 	2
scalar Scenario2.node[77].appl 	generatedBSMs 	350
scalar Scenario2.node[77].appl 	receivedBSMs 	26711
scalar Scenario2.node[77].appl 	generatedWSAs 	0
scalar Scenario2.node[77].appl 	receivedWSAs 	0
scalar Scenario2.node[77].appl 	delayWSM 	2.098548912754
scalar Scenario2.node[77].appl 	Dist_Propa 	692.20535351586
scalar Scenario2.node[77].nic.phy80211p 	busyTime 	0.085501257142852
scalar Scenario2.node[77].nic.phy80211p 	ncollisions 	968
scalar Scenario2.node[77].nic.mac1609_4 	ReceivedUnicastPackets 	0
scalar Scenario2.node[77].nic.mac1609_4 	ReceivedBroadcasts 	26713
scalar Scenario2.node[77].nic.mac1609_4 	SentPackets 	351
scalar Scenario2.node[77].nic.mac1609_4 	SNIRLostPackets 	2059
scalar Scenario2.node[77].nic.mac1609_4 	RXTXLostPackets 	0
scalar Scenario2.node[77].nic.mac1609_4 	TotalLostPackets 	2059
scalar Scenario2.node[77].nic.mac1609_4 	DroppedPacketsInMac 	0
scalar Scenario2.node[77].nic.mac1609_4 	TooLittleTime 	0
scalar Scenario2.node[77].nic.mac1609_4 	TimesIntoBackoff 	489
scalar Scenario2.node[77].nic.mac1609_4 	SlotsBackoff 	729
scalar Scenario2.node[77].nic.mac1609_4 	NumInternalContention 	0
scalar Scenario2.node[77].nic.mac1609_4 	totalBusyTime 	2.916063583892
scalar Scenario2.node[77].veinsmobility 	startTime 	3
scalar Scenario2.node[77].veinsmobility 	totalTime 	34
scalar Scenario2.node[77].veinsmobility 	stopTime 	38
scalar Scenario2.node[77].veinsmobility 	minSpeed 	2.469303570089
scalar Scenario2.node[77].veinsmobility 	maxSpeed 	18.989598316788
scalar Scenario2.node[77].veinsmobility 	totalDistance 	534.6176752236
scalar Scenario2.node[77].veinsmobility 	totalCO2Emission 	125.29924590028
scalar Scenario2.node[78].appl 	generatedWSMs 	1
scalar Scenario2.node[78].appl 	receivedWSMs 	34
scalar Scenario2.node[78].appl 	generatedBSMs 	350
scalar Scenario2.node[78].appl 	receivedBSMs 	28478
scalar Scenario2.node[78].appl 	generatedWSAs 	0
scalar Scenario2.node[78].appl 	receivedWSAs 	0
scalar Scenario2.node[78].appl 	delayWSM 	2.034703864168
scalar Scenario2.node[78].appl 	Dist_Propa 	667.14810281911
scalar Scenario2.node[78].nic.phy80211p 	busyTime 	0.090421485714275
scalar Scenario2.node[78].nic.phy80211p 	ncollisions 	1043
scalar Scenario2.node[78].nic.mac1609_4 	ReceivedUnicastPackets 	0
scalar Scenario2.node[78].nic.mac1609_4 	ReceivedBroadcasts 	28512
scalar Scenario2.node[78].nic.mac1609_4 	SentPackets 	351
scalar Scenario2.node[78].nic.mac1609_4 	SNIRLostPackets 	1874
scalar Scenario2.node[78].nic.mac1609_4 	RXTXLostPackets 	0
scalar Scenario2.node[78].nic.mac1609_4 	TotalLostPackets 	1874
scalar Scenario2.node[78].nic.mac1609_4 	DroppedPacketsInMac 	0
scalar Scenario2.node[78].nic.mac1609_4 	TooLittleTime 	0
scalar Scenario2.node[78].nic.mac1609_4 	TimesIntoBackoff 	351
scalar Scenario2.node[78].nic.mac1609_4 	SlotsBackoff 	524
scalar Scenario2.node[78].nic.mac1609_4 	NumInternalContention 	0
scalar Scenario2.node[78].nic.mac1609_4 	totalBusyTime 	3.115311
scalar Scenario2.node[78].veinsmobility 	startTime 	3
scalar Scenario2.node[78].veinsmobility 	totalTime 	34
scalar Scenario2.node[78].veinsmobility 	stopTime 	38
scalar Scenario2.node[78].veinsmobility 	minSpeed 	1.6589710813337
scalar Scenario2.node[78].veinsmobility 	maxSpeed 	18.915644339598
scalar Scenario2.node[78].veinsmobility 	totalDistance 	513.35441316521
scalar Scenario2.node[78].veinsmobility 	totalCO2Emission 	122.34261446111
scalar Scenario2.node[23].appl 	generatedWSMs 	1
scalar Scenario2.node[23].appl 	receivedWSMs 	9
scalar Scenario2.node[23].appl 	generatedBSMs 	380
scalar Scenario2.node[23].appl 	receivedBSMs 	29605
scalar Scenario2.node[23].appl 	generatedWSAs 	0
scalar Scenario2.node[23].appl 	receivedWSAs 	0
scalar Scenario2.node[23].appl 	delayWSM 	2.039129431116
scalar Scenario2.node[23].appl 	Dist_Propa 	227.05709730844
scalar Scenario2.node[23].nic.phy80211p 	busyTime 	0.086911368421039
scalar Scenario2.node[23].nic.phy80211p 	ncollisions 	1079
scalar Scenario2.node[23].nic.mac1609_4 	ReceivedUnicastPackets 	0
scalar Scenario2.node[23].nic.mac1609_4 	ReceivedBroadcasts 	29614
scalar Scenario2.node[23].nic.mac1609_4 	SentPackets 	381
scalar Scenario2.node[23].nic.mac1609_4 	SNIRLostPackets 	2131
scalar Scenario2.node[23].nic.mac1609_4 	RXTXLostPackets 	184
scalar Scenario2.node[23].nic.mac1609_4 	TotalLostPackets 	2315
scalar Scenario2.node[23].nic.mac1609_4 	DroppedPacketsInMac 	0
scalar Scenario2.node[23].nic.mac1609_4 	TooLittleTime 	0
scalar Scenario2.node[23].nic.mac1609_4 	TimesIntoBackoff 	381
scalar Scenario2.node[23].nic.mac1609_4 	SlotsBackoff 	583
scalar Scenario2.node[23].nic.mac1609_4 	NumInternalContention 	0
scalar Scenario2.node[23].nic.mac1609_4 	totalBusyTime 	3.23516999849
scalar Scenario2.node[23].veinsmobility 	startTime 	1
scalar Scenario2.node[23].veinsmobility 	totalTime 	37
scalar Scenario2.node[23].veinsmobility 	stopTime 	39
scalar Scenario2.node[23].veinsmobility 	minSpeed 	3.9197721995389
scalar Scenario2.node[23].veinsmobility 	maxSpeed 	18.958762100481
scalar Scenario2.node[23].veinsmobility 	totalDistance 	551.2990211723
scalar Scenario2.node[23].veinsmobility 	totalCO2Emission 	129.27981560609
scalar Scenario2.node[99].appl 	generatedWSMs 	1
scalar Scenario2.node[99].appl 	receivedWSMs 	35
scalar Scenario2.node[99].appl 	generatedBSMs 	320
scalar Scenario2.node[99].appl 	receivedBSMs 	27788
scalar Scenario2.node[99].appl 	generatedWSAs 	0
scalar Scenario2.node[99].appl 	receivedWSAs 	0
scalar Scenario2.node[99].appl 	delayWSM 	2.03470378856
scalar Scenario2.node[99].appl 	Dist_Propa 	690.09830381614
scalar Scenario2.node[99].nic.phy80211p 	busyTime 	0.096695749999991
scalar Scenario2.node[99].nic.phy80211p 	ncollisions 	973
scalar Scenario2.node[99].nic.mac1609_4 	ReceivedUnicastPackets 	0
scalar Scenario2.node[99].nic.mac1609_4 	ReceivedBroadcasts 	27823
scalar Scenario2.node[99].nic.mac1609_4 	SentPackets 	321
scalar Scenario2.node[99].nic.mac1609_4 	SNIRLostPackets 	1884
scalar Scenario2.node[99].nic.mac1609_4 	RXTXLostPackets 	0
scalar Scenario2.node[99].nic.mac1609_4 	TotalLostPackets 	1884
scalar Scenario2.node[99].nic.mac1609_4 	DroppedPacketsInMac 	0
scalar Scenario2.node[99].nic.mac1609_4 	TooLittleTime 	0
scalar Scenario2.node[99].nic.mac1609_4 	TimesIntoBackoff 	321
scalar Scenario2.node[99].nic.mac1609_4 	SlotsBackoff 	478
scalar Scenario2.node[99].nic.mac1609_4 	NumInternalContention 	0
scalar Scenario2.node[99].nic.mac1609_4 	totalBusyTime 	3.033353
scalar Scenario2.node[99].veinsmobility 	startTime 	7
scalar Scenario2.node[99].veinsmobility 	totalTime 	31
scalar Scenario2.node[99].veinsmobility 	stopTime 	39
scalar Scenario2.node[99].veinsmobility 	minSpeed 	3.4495017279335
scalar Scenario2.node[99].veinsmobility 	maxSpeed 	18.97233216234
scalar Scenario2.node[99].veinsmobility 	totalDistance 	505.89978518668
scalar Scenario2.node[99].veinsmobility 	totalCO2Emission 	118.34030555927
scalar Scenario2.node[43].appl 	generatedWSMs 	1
scalar Scenario2.node[43].appl 	receivedWSMs 	44
scalar Scenario2.node[43].appl 	generatedBSMs 	390
scalar Scenario2.node[43].appl 	receivedBSMs 	33091
scalar Scenario2.node[43].appl 	generatedWSAs 	0
scalar Scenario2.node[43].appl 	receivedWSAs 	0
scalar Scenario2.node[43].appl 	delayWSM 	2.012341489343
scalar Scenario2.node[43].appl 	Dist_Propa 	596.60848483935
scalar Scenario2.node[43].nic.phy80211p 	busyTime 	0.094738871794847
scalar Scenario2.node[43].nic.phy80211p 	ncollisions 	1163
scalar Scenario2.node[43].nic.mac1609_4 	ReceivedUnicastPackets 	0
scalar Scenario2.node[43].nic.mac1609_4 	ReceivedBroadcasts 	33135
scalar Scenario2.node[43].nic.mac1609_4 	SentPackets 	391
scalar Scenario2.node[43].nic.mac1609_4 	SNIRLostPackets 	2333
scalar Scenario2.node[43].nic.mac1609_4 	RXTXLostPackets 	0
scalar Scenario2.node[43].nic.mac1609_4 	TotalLostPackets 	2333
scalar Scenario2.node[43].nic.mac1609_4 	DroppedPacketsInMac 	0
scalar Scenario2.node[43].nic.mac1609_4 	TooLittleTime 	0
scalar Scenario2.node[43].nic.mac1609_4 	TimesIntoBackoff 	391
scalar Scenario2.node[43].nic.mac1609_4 	SlotsBackoff 	583
scalar Scenario2.node[43].nic.mac1609_4 	NumInternalContention 	0
scalar Scenario2.node[43].nic.mac1609_4 	totalBusyTime 	3.614191
scalar Scenario2.node[43].veinsmobility 	startTime 	1
scalar Scenario2.node[43].veinsmobility 	totalTime 	38
scalar Scenario2.node[43].veinsmobility 	stopTime 	40
scalar Scenario2.node[43].veinsmobility 	minSpeed 	0.93985029414634
scalar Scenario2.node[43].veinsmobility 	maxSpeed 	18.998235099297
scalar Scenario2.node[43].veinsmobility 	totalDistance 	533.08445200913
scalar Scenario2.node[43].veinsmobility 	totalCO2Emission 	131.64580719256
scalar Scenario2.node[97].appl 	generatedWSMs 	1
scalar Scenario2.node[97].appl 	receivedWSMs 	45
scalar Scenario2.node[97].appl 	generatedBSMs 	340
scalar Scenario2.node[97].appl 	receivedBSMs 	31995
scalar Scenario2.node[97].appl 	generatedWSAs 	0
scalar Scenario2.node[97].appl 	receivedWSAs 	0
scalar Scenario2.node[97].appl 	delayWSM 	2.039129341028
scalar Scenario2.node[97].appl 	Dist_Propa 	320.89912442151
scalar Scenario2.node[97].nic.phy80211p 	busyTime 	0.10653670588233
scalar Scenario2.node[97].nic.phy80211p 	ncollisions 	1323
scalar Scenario2.node[97].nic.mac1609_4 	ReceivedUnicastPackets 	0
scalar Scenario2.node[97].nic.mac1609_4 	ReceivedBroadcasts 	32040
scalar Scenario2.node[97].nic.mac1609_4 	SentPackets 	341
scalar Scenario2.node[97].nic.mac1609_4 	SNIRLostPackets 	2729
scalar Scenario2.node[97].nic.mac1609_4 	RXTXLostPackets 	0
scalar Scenario2.node[97].nic.mac1609_4 	TotalLostPackets 	2729
scalar Scenario2.node[97].nic.mac1609_4 	DroppedPacketsInMac 	0
scalar Scenario2.node[97].nic.mac1609_4 	TooLittleTime 	0
scalar Scenario2.node[97].nic.mac1609_4 	TimesIntoBackoff 	341
scalar Scenario2.node[97].nic.mac1609_4 	SlotsBackoff 	560
scalar Scenario2.node[97].nic.mac1609_4 	NumInternalContention 	0
scalar Scenario2.node[97].nic.mac1609_4 	totalBusyTime 	3.512744159098
scalar Scenario2.node[97].veinsmobility 	startTime 	6
scalar Scenario2.node[97].veinsmobility 	totalTime 	33
scalar Scenario2.node[97].veinsmobility 	stopTime 	40
scalar Scenario2.node[97].veinsmobility 	minSpeed 	2.0811592944059
scalar Scenario2.node[97].veinsmobility 	maxSpeed 	18.985642932095
scalar Scenario2.node[97].veinsmobility 	totalDistance 	537.06051774556
scalar Scenario2.node[97].veinsmobility 	totalCO2Emission 	124.01651426989
scalar Scenario2.node[87].appl 	generatedWSMs 	1
scalar Scenario2.node[87].appl 	receivedWSMs 	49
scalar Scenario2.node[87].appl 	generatedBSMs 	360
scalar Scenario2.node[87].appl 	receivedBSMs 	31840
scalar Scenario2.node[87].appl 	generatedWSAs 	0
scalar Scenario2.node[87].appl 	receivedWSAs 	0
scalar Scenario2.node[87].appl 	delayWSM 	2.012341463185
scalar Scenario2.node[87].appl 	Dist_Propa 	604.08620390877
scalar Scenario2.node[87].nic.phy80211p 	busyTime 	0.098772444444422
scalar Scenario2.node[87].nic.phy80211p 	ncollisions 	1087
scalar Scenario2.node[87].nic.mac1609_4 	ReceivedUnicastPackets 	0
scalar Scenario2.node[87].nic.mac1609_4 	ReceivedBroadcasts 	31889
scalar Scenario2.node[87].nic.mac1609_4 	SentPackets 	361
scalar Scenario2.node[87].nic.mac1609_4 	SNIRLostPackets 	2235
scalar Scenario2.node[87].nic.mac1609_4 	RXTXLostPackets 	0
scalar Scenario2.node[87].nic.mac1609_4 	TotalLostPackets 	2235
scalar Scenario2.node[87].nic.mac1609_4 	DroppedPacketsInMac 	0
scalar Scenario2.node[87].nic.mac1609_4 	TooLittleTime 	0
scalar Scenario2.node[87].nic.mac1609_4 	TimesIntoBackoff 	361
scalar Scenario2.node[87].nic.mac1609_4 	SlotsBackoff 	566
scalar Scenario2.node[87].nic.mac1609_4 	NumInternalContention 	0
scalar Scenario2.node[87].nic.mac1609_4 	totalBusyTime 	3.47442955684
scalar Scenario2.node[87].veinsmobility 	startTime 	5
scalar Scenario2.node[87].veinsmobility 	totalTime 	35
scalar Scenario2.node[87].veinsmobility 	stopTime 	41
scalar Scenario2.node[87].veinsmobility 	minSpeed 	1.5977305046032
scalar Scenario2.node[87].veinsmobility 	maxSpeed 	18.996921987447
scalar Scenario2.node[87].veinsmobility 	totalDistance 	533.65184389026
scalar Scenario2.node[87].veinsmobility 	totalCO2Emission 	127.08622532585
scalar Scenario2.node[65].appl 	generatedWSMs 	1
scalar Scenario2.node[65].appl 	receivedWSMs 	60
scalar Scenario2.node[65].appl 	generatedBSMs 	390
scalar Scenario2.node[65].appl 	receivedBSMs 	34576
scalar Scenario2.node[65].appl 	generatedWSAs 	0
scalar Scenario2.node[65].appl 	receivedWSAs 	0
scalar Scenario2.node[65].appl 	delayWSM 	2.012341414048
scalar Scenario2.node[65].appl 	Dist_Propa 	613.48337972175
scalar Scenario2.node[65].nic.phy80211p 	busyTime 	0.099699282051252
scalar Scenario2.node[65].nic.phy80211p 	ncollisions 	1287
scalar Scenario2.node[65].nic.mac1609_4 	ReceivedUnicastPackets 	0
scalar Scenario2.node[65].nic.mac1609_4 	ReceivedBroadcasts 	34636
scalar Scenario2.node[65].nic.mac1609_4 	SentPackets 	391
scalar Scenario2.node[65].nic.mac1609_4 	SNIRLostPackets 	2670
scalar Scenario2.node[65].nic.mac1609_4 	RXTXLostPackets 	0
scalar Scenario2.node[65].nic.mac1609_4 	TotalLostPackets 	2670
scalar Scenario2.node[65].nic.mac1609_4 	DroppedPacketsInMac 	0
scalar Scenario2.node[65].nic.mac1609_4 	TooLittleTime 	0
scalar Scenario2.node[65].nic.mac1609_4 	TimesIntoBackoff 	391
scalar Scenario2.node[65].nic.mac1609_4 	SlotsBackoff 	607
scalar Scenario2.node[65].nic.mac1609_4 	NumInternalContention 	0
scalar Scenario2.node[65].nic.mac1609_4 	totalBusyTime 	3.78547551244
scalar Scenario2.node[65].veinsmobility 	startTime 	2
scalar Scenario2.node[65].veinsmobility 	totalTime 	38
scalar Scenario2.node[65].veinsmobility 	stopTime 	41
scalar Scenario2.node[65].veinsmobility 	minSpeed 	2.7004654792201
scalar Scenario2.node[65].veinsmobility 	maxSpeed 	18.952788990605
scalar Scenario2.node[65].veinsmobility 	totalDistance 	542.46622928497
scalar Scenario2.node[65].veinsmobility 	totalCO2Emission 	129.04066945565
scalar Scenario2.node[86].appl 	generatedWSMs 	1
scalar Scenario2.node[86].appl 	receivedWSMs 	60
scalar Scenario2.node[86].appl 	generatedBSMs 	360
scalar Scenario2.node[86].appl 	receivedBSMs 	34647
scalar Scenario2.node[86].appl 	generatedWSAs 	0
scalar Scenario2.node[86].appl 	receivedWSAs 	0
scalar Scenario2.node[86].appl 	delayWSM 	2.012341373086
scalar Scenario2.node[86].appl 	Dist_Propa 	553.23772011674
scalar Scenario2.node[86].nic.phy80211p 	busyTime 	0.10914066666663
scalar Scenario2.node[86].nic.phy80211p 	ncollisions 	1453
scalar Scenario2.node[86].nic.mac1609_4 	ReceivedUnicastPackets 	0
scalar Scenario2.node[86].nic.mac1609_4 	ReceivedBroadcasts 	34707
scalar Scenario2.node[86].nic.mac1609_4 	SentPackets 	361
scalar Scenario2.node[86].nic.mac1609_4 	SNIRLostPackets 	2990
scalar Scenario2.node[86].nic.mac1609_4 	RXTXLostPackets 	0
scalar Scenario2.node[86].nic.mac1609_4 	TotalLostPackets 	2990
scalar Scenario2.node[86].nic.mac1609_4 	DroppedPacketsInMac 	0
scalar Scenario2.node[86].nic.mac1609_4 	TooLittleTime 	0
scalar Scenario2.node[86].nic.mac1609_4 	TimesIntoBackoff 	361
scalar Scenario2.node[86].nic.mac1609_4 	SlotsBackoff 	524
scalar Scenario2.node[86].nic.mac1609_4 	NumInternalContention 	0
scalar Scenario2.node[86].nic.mac1609_4 	totalBusyTime 	3.807204938383
scalar Scenario2.node[86].veinsmobility 	startTime 	5
scalar Scenario2.node[86].veinsmobility 	totalTime 	35
scalar Scenario2.node[86].veinsmobility 	stopTime 	41
scalar Scenario2.node[86].veinsmobility 	minSpeed 	2.8531540664863
scalar Scenario2.node[86].veinsmobility 	maxSpeed 	18.998548358157
scalar Scenario2.node[86].veinsmobility 	totalDistance 	576.58382063838
scalar Scenario2.node[86].veinsmobility 	totalCO2Emission 	128.79870530879
scalar Scenario2.node[69].appl 	generatedWSMs 	1
scalar Scenario2.node[69].appl 	receivedWSMs 	63
scalar Scenario2.node[69].appl 	generatedBSMs 	400
scalar Scenario2.node[69].appl 	receivedBSMs 	35456
scalar Scenario2.node[69].appl 	generatedWSAs 	0
scalar Scenario2.node[69].appl 	receivedWSAs 	0
scalar Scenario2.node[69].appl 	delayWSM 	2.012341388085
scalar Scenario2.node[69].appl 	Dist_Propa 	275.9313845947
scalar Scenario2.node[69].nic.phy80211p 	busyTime 	0.099751999999968
scalar Scenario2.node[69].nic.phy80211p 	ncollisions 	1348
scalar Scenario2.node[69].nic.mac1609_4 	ReceivedUnicastPackets 	0
scalar Scenario2.node[69].nic.mac1609_4 	ReceivedBroadcasts 	35519
scalar Scenario2.node[69].nic.mac1609_4 	SentPackets 	401
scalar Scenario2.node[69].nic.mac1609_4 	SNIRLostPackets 	2761
scalar Scenario2.node[69].nic.mac1609_4 	RXTXLostPackets 	0
scalar Scenario2.node[69].nic.mac1609_4 	TotalLostPackets 	2761
scalar Scenario2.node[69].nic.mac1609_4 	DroppedPacketsInMac 	0
scalar Scenario2.node[69].nic.mac1609_4 	TooLittleTime 	0
scalar Scenario2.node[69].nic.mac1609_4 	TimesIntoBackoff 	401
scalar Scenario2.node[69].nic.mac1609_4 	SlotsBackoff 	618
scalar Scenario2.node[69].nic.mac1609_4 	NumInternalContention 	0
scalar Scenario2.node[69].nic.mac1609_4 	totalBusyTime 	3.885105
scalar Scenario2.node[69].veinsmobility 	startTime 	2
scalar Scenario2.node[69].veinsmobility 	totalTime 	39
scalar Scenario2.node[69].veinsmobility 	stopTime 	42
scalar Scenario2.node[69].veinsmobility 	minSpeed 	1.8372399861668
scalar Scenario2.node[69].veinsmobility 	maxSpeed 	18.994541057395
scalar Scenario2.node[69].veinsmobility 	totalDistance 	557.44137128233
scalar Scenario2.node[69].veinsmobility 	totalCO2Emission 	133.33762905362
scalar Scenario2.node[2].appl 	generatedWSMs 	1
scalar Scenario2.node[2].appl 	receivedWSMs 	71
scalar Scenario2.node[2].appl 	generatedBSMs 	420
scalar Scenario2.node[2].appl 	receivedBSMs 	37258
scalar Scenario2.node[2].appl 	generatedWSAs 	0
scalar Scenario2.node[2].appl 	receivedWSAs 	0
scalar Scenario2.node[2].appl 	delayWSM 	2.012341339492
scalar Scenario2.node[2].appl 	Dist_Propa 	236.38097146951
scalar Scenario2.node[2].nic.phy80211p 	busyTime 	0.099897523809507
scalar Scenario2.node[2].nic.phy80211p 	ncollisions 	1428
scalar Scenario2.node[2].nic.mac1609_4 	ReceivedUnicastPackets 	0
scalar Scenario2.node[2].nic.mac1609_4 	ReceivedBroadcasts 	37329
scalar Scenario2.node[2].nic.mac1609_4 	SentPackets 	421
scalar Scenario2.node[2].nic.mac1609_4 	SNIRLostPackets 	2917
scalar Scenario2.node[2].nic.mac1609_4 	RXTXLostPackets 	3
scalar Scenario2.node[2].nic.mac1609_4 	TotalLostPackets 	2920
scalar Scenario2.node[2].nic.mac1609_4 	DroppedPacketsInMac 	0
scalar Scenario2.node[2].nic.mac1609_4 	TooLittleTime 	0
scalar Scenario2.node[2].nic.mac1609_4 	TimesIntoBackoff 	562
scalar Scenario2.node[2].nic.mac1609_4 	SlotsBackoff 	868
scalar Scenario2.node[2].nic.mac1609_4 	NumInternalContention 	0
scalar Scenario2.node[2].nic.mac1609_4 	totalBusyTime 	4.084917
scalar Scenario2.node[2].veinsmobility 	startTime 	1
scalar Scenario2.node[2].veinsmobility 	totalTime 	41
scalar Scenario2.node[2].veinsmobility 	stopTime 	43
scalar Scenario2.node[2].veinsmobility 	minSpeed 	3.897912896338
scalar Scenario2.node[2].veinsmobility 	maxSpeed 	18.952529372755
scalar Scenario2.node[2].veinsmobility 	totalDistance 	587.77899406994
scalar Scenario2.node[2].veinsmobility 	totalCO2Emission 	134.19222120583
scalar Scenario2.node[100].appl 	generatedWSMs 	1
scalar Scenario2.node[100].appl 	receivedWSMs 	74
scalar Scenario2.node[100].appl 	generatedBSMs 	360
scalar Scenario2.node[100].appl 	receivedBSMs 	34018
scalar Scenario2.node[100].appl 	generatedWSAs 	0
scalar Scenario2.node[100].appl 	receivedWSAs 	0
scalar Scenario2.node[100].appl 	delayWSM 	2.012341313178
scalar Scenario2.node[100].appl 	Dist_Propa 	247.44922905674
scalar Scenario2.node[100].nic.phy80211p 	busyTime 	0.10631955555552
scalar Scenario2.node[100].nic.phy80211p 	ncollisions 	1301
scalar Scenario2.node[100].nic.mac1609_4 	ReceivedUnicastPackets 	0
scalar Scenario2.node[100].nic.mac1609_4 	ReceivedBroadcasts 	34092
scalar Scenario2.node[100].nic.mac1609_4 	SentPackets 	361
scalar Scenario2.node[100].nic.mac1609_4 	SNIRLostPackets 	2610
scalar Scenario2.node[100].nic.mac1609_4 	RXTXLostPackets 	0
scalar Scenario2.node[100].nic.mac1609_4 	TotalLostPackets 	2610
scalar Scenario2.node[100].nic.mac1609_4 	DroppedPacketsInMac 	0
scalar Scenario2.node[100].nic.mac1609_4 	TooLittleTime 	0
scalar Scenario2.node[100].nic.mac1609_4 	TimesIntoBackoff 	361
scalar Scenario2.node[100].nic.mac1609_4 	SlotsBackoff 	542
scalar Scenario2.node[100].nic.mac1609_4 	NumInternalContention 	0
scalar Scenario2.node[100].nic.mac1609_4 	totalBusyTime 	3.729334446707
scalar Scenario2.node[100].veinsmobility 	startTime 	7
scalar Scenario2.node[100].veinsmobility 	totalTime 	35
scalar Scenario2.node[100].veinsmobility 	stopTime 	43
scalar Scenario2.node[100].veinsmobility 	minSpeed 	3.7401869103686
scalar Scenario2.node[100].veinsmobility 	maxSpeed 	18.953406393947
scalar Scenario2.node[100].veinsmobility 	totalDistance 	554.61934619149
scalar Scenario2.node[100].veinsmobility 	totalCO2Emission 	124.93218523496
scalar Scenario2.node[75].appl 	generatedWSMs 	1
scalar Scenario2.node[75].appl 	receivedWSMs 	80
scalar Scenario2.node[75].appl 	generatedBSMs 	410
scalar Scenario2.node[75].appl 	receivedBSMs 	38107
scalar Scenario2.node[75].appl 	generatedWSAs 	0
scalar Scenario2.node[75].appl 	receivedWSAs 	0
scalar Scenario2.node[75].appl 	delayWSM 	2.012341265615
scalar Scenario2.node[75].appl 	Dist_Propa 	256.20156504249
scalar Scenario2.node[75].nic.phy80211p 	busyTime 	0.10475726829267
scalar Scenario2.node[75].nic.phy80211p 	ncollisions 	1497
scalar Scenario2.node[75].nic.mac1609_4 	ReceivedUnicastPackets 	0
scalar Scenario2.node[75].nic.mac1609_4 	ReceivedBroadcasts 	38187
scalar Scenario2.node[75].nic.mac1609_4 	SentPackets 	411
scalar Scenario2.node[75].nic.mac1609_4 	SNIRLostPackets 	3002
scalar Scenario2.node[75].nic.mac1609_4 	RXTXLostPackets 	0
scalar Scenario2.node[75].nic.mac1609_4 	TotalLostPackets 	3002
scalar Scenario2.node[75].nic.mac1609_4 	DroppedPacketsInMac 	0
scalar Scenario2.node[75].nic.mac1609_4 	TooLittleTime 	0
scalar Scenario2.node[75].nic.mac1609_4 	TimesIntoBackoff 	412
scalar Scenario2.node[75].nic.mac1609_4 	SlotsBackoff 	594
scalar Scenario2.node[75].nic.mac1609_4 	NumInternalContention 	0
scalar Scenario2.node[75].nic.mac1609_4 	totalBusyTime 	4.181783624004
scalar Scenario2.node[75].veinsmobility 	startTime 	3
scalar Scenario2.node[75].veinsmobility 	totalTime 	40
scalar Scenario2.node[75].veinsmobility 	stopTime 	44
scalar Scenario2.node[75].veinsmobility 	minSpeed 	3.7663311277212
scalar Scenario2.node[75].veinsmobility 	maxSpeed 	18.953042766952
scalar Scenario2.node[75].veinsmobility 	totalDistance 	592.6119070957
scalar Scenario2.node[75].veinsmobility 	totalCO2Emission 	136.32523109303
scalar Scenario2.node[102].appl 	generatedWSMs 	1
scalar Scenario2.node[102].appl 	receivedWSMs 	84
scalar Scenario2.node[102].appl 	generatedBSMs 	370
scalar Scenario2.node[102].appl 	receivedBSMs 	36148
scalar Scenario2.node[102].appl 	generatedWSAs 	0
scalar Scenario2.node[102].appl 	receivedWSAs 	0
scalar Scenario2.node[102].appl 	delayWSM 	2.012341236693
scalar Scenario2.node[102].appl 	Dist_Propa 	268.48651864457
scalar Scenario2.node[102].nic.phy80211p 	busyTime 	0.10998616216213
scalar Scenario2.node[102].nic.phy80211p 	ncollisions 	1411
scalar Scenario2.node[102].nic.mac1609_4 	ReceivedUnicastPackets 	0
scalar Scenario2.node[102].nic.mac1609_4 	ReceivedBroadcasts 	36232
scalar Scenario2.node[102].nic.mac1609_4 	SentPackets 	371
scalar Scenario2.node[102].nic.mac1609_4 	SNIRLostPackets 	2782
scalar Scenario2.node[102].nic.mac1609_4 	RXTXLostPackets 	0
scalar Scenario2.node[102].nic.mac1609_4 	TotalLostPackets 	2782
scalar Scenario2.node[102].nic.mac1609_4 	DroppedPacketsInMac 	0
scalar Scenario2.node[102].nic.mac1609_4 	TooLittleTime 	0
scalar Scenario2.node[102].nic.mac1609_4 	TimesIntoBackoff 	371
scalar Scenario2.node[102].nic.mac1609_4 	SlotsBackoff 	584
scalar Scenario2.node[102].nic.mac1609_4 	NumInternalContention 	0
scalar Scenario2.node[102].nic.mac1609_4 	totalBusyTime 	3.965839715158
scalar Scenario2.node[102].veinsmobility 	startTime 	7
scalar Scenario2.node[102].veinsmobility 	totalTime 	36
scalar Scenario2.node[102].veinsmobility 	stopTime 	44
scalar Scenario2.node[102].veinsmobility 	minSpeed 	2.9899711694765
scalar Scenario2.node[102].veinsmobility 	maxSpeed 	18.986820058792
scalar Scenario2.node[102].veinsmobility 	totalDistance 	561.05710037719
scalar Scenario2.node[102].veinsmobility 	totalCO2Emission 	128.11329495202
scalar Scenario2.node[10].appl 	generatedWSMs 	1
scalar Scenario2.node[10].appl 	receivedWSMs 	87
scalar Scenario2.node[10].appl 	generatedBSMs 	440
scalar Scenario2.node[10].appl 	receivedBSMs 	41124
scalar Scenario2.node[10].appl 	generatedWSAs 	0
scalar Scenario2.node[10].appl 	receivedWSAs 	0
scalar Scenario2.node[10].appl 	delayWSM 	2.012341192416
scalar Scenario2.node[10].appl 	Dist_Propa 	276.00789670807
scalar Scenario2.node[10].nic.phy80211p 	busyTime 	0.10537527272729
scalar Scenario2.node[10].nic.phy80211p 	ncollisions 	1614
scalar Scenario2.node[10].nic.mac1609_4 	ReceivedUnicastPackets 	0
scalar Scenario2.node[10].nic.mac1609_4 	ReceivedBroadcasts 	41211
scalar Scenario2.node[10].nic.mac1609_4 	SentPackets 	441
scalar Scenario2.node[10].nic.mac1609_4 	SNIRLostPackets 	3249
scalar Scenario2.node[10].nic.mac1609_4 	RXTXLostPackets 	19
scalar Scenario2.node[10].nic.mac1609_4 	TotalLostPackets 	3268
scalar Scenario2.node[10].nic.mac1609_4 	DroppedPacketsInMac 	0
scalar Scenario2.node[10].nic.mac1609_4 	TooLittleTime 	0
scalar Scenario2.node[10].nic.mac1609_4 	TimesIntoBackoff 	661
scalar Scenario2.node[10].nic.mac1609_4 	SlotsBackoff 	968
scalar Scenario2.node[10].nic.mac1609_4 	NumInternalContention 	0
scalar Scenario2.node[10].nic.mac1609_4 	totalBusyTime 	4.512393064835
scalar Scenario2.node[10].veinsmobility 	startTime 	1
scalar Scenario2.node[10].veinsmobility 	totalTime 	43
scalar Scenario2.node[10].veinsmobility 	stopTime 	45
scalar Scenario2.node[10].veinsmobility 	minSpeed 	3.6504235994233
scalar Scenario2.node[10].veinsmobility 	maxSpeed 	18.96345657906
scalar Scenario2.node[10].veinsmobility 	totalDistance 	629.30644292796
scalar Scenario2.node[10].veinsmobility 	totalCO2Emission 	142.41398201351
scalar Scenario2.node[12].appl 	generatedWSMs 	1
scalar Scenario2.node[12].appl 	receivedWSMs 	96
scalar Scenario2.node[12].appl 	generatedBSMs 	450
scalar Scenario2.node[12].appl 	receivedBSMs 	43419
scalar Scenario2.node[12].appl 	generatedWSAs 	0
scalar Scenario2.node[12].appl 	receivedWSAs 	0
scalar Scenario2.node[12].appl 	delayWSM 	2.012341119892
scalar Scenario2.node[12].appl 	Dist_Propa 	289.01537401869
scalar Scenario2.node[12].nic.phy80211p 	busyTime 	0.10827413333336
scalar Scenario2.node[12].nic.phy80211p 	ncollisions 	1582
scalar Scenario2.node[12].nic.mac1609_4 	ReceivedUnicastPackets 	0
scalar Scenario2.node[12].nic.mac1609_4 	ReceivedBroadcasts 	43515
scalar Scenario2.node[12].nic.mac1609_4 	SentPackets 	451
scalar Scenario2.node[12].nic.mac1609_4 	SNIRLostPackets 	3199
scalar Scenario2.node[12].nic.mac1609_4 	RXTXLostPackets 	126
scalar Scenario2.node[12].nic.mac1609_4 	TotalLostPackets 	3325
scalar Scenario2.node[12].nic.mac1609_4 	DroppedPacketsInMac 	0
scalar Scenario2.node[12].nic.mac1609_4 	TooLittleTime 	0
scalar Scenario2.node[12].nic.mac1609_4 	TimesIntoBackoff 	900
scalar Scenario2.node[12].nic.mac1609_4 	SlotsBackoff 	1351
scalar Scenario2.node[12].nic.mac1609_4 	NumInternalContention 	0
scalar Scenario2.node[12].nic.mac1609_4 	totalBusyTime 	4.751139430569
scalar Scenario2.node[12].veinsmobility 	startTime 	1
scalar Scenario2.node[12].veinsmobility 	totalTime 	44
scalar Scenario2.node[12].veinsmobility 	stopTime 	46
scalar Scenario2.node[12].veinsmobility 	minSpeed 	3.8852701568365
scalar Scenario2.node[12].veinsmobility 	maxSpeed 	18.996202773422
scalar Scenario2.node[12].veinsmobility 	totalDistance 	635.78531932981
scalar Scenario2.node[12].veinsmobility 	totalCO2Emission 	140.16590807303
scalar Scenario2.node[132].appl 	generatedWSMs 	1
scalar Scenario2.node[132].appl 	receivedWSMs 	103
scalar Scenario2.node[132].appl 	generatedBSMs 	340
scalar Scenario2.node[132].appl 	receivedBSMs 	35906
scalar Scenario2.node[132].appl 	generatedWSAs 	0
scalar Scenario2.node[132].appl 	receivedWSAs 	0
scalar Scenario2.node[132].appl 	delayWSM 	2.012341041715
scalar Scenario2.node[132].appl 	Dist_Propa 	332.08640076034
scalar Scenario2.node[132].nic.phy80211p 	busyTime 	0.11907976470585
scalar Scenario2.node[132].nic.phy80211p 	ncollisions 	1473
scalar Scenario2.node[132].nic.mac1609_4 	ReceivedUnicastPackets 	0
scalar Scenario2.node[132].nic.mac1609_4 	ReceivedBroadcasts 	36009
scalar Scenario2.node[132].nic.mac1609_4 	SentPackets 	341
scalar Scenario2.node[132].nic.mac1609_4 	SNIRLostPackets 	2772
scalar Scenario2.node[132].nic.mac1609_4 	RXTXLostPackets 	0
scalar Scenario2.node[132].nic.mac1609_4 	TotalLostPackets 	2772
scalar Scenario2.node[132].nic.mac1609_4 	DroppedPacketsInMac 	0
scalar Scenario2.node[132].nic.mac1609_4 	TooLittleTime 	0
scalar Scenario2.node[132].nic.mac1609_4 	TimesIntoBackoff 	342
scalar Scenario2.node[132].nic.mac1609_4 	SlotsBackoff 	488
scalar Scenario2.node[132].nic.mac1609_4 	NumInternalContention 	0
scalar Scenario2.node[132].nic.mac1609_4 	totalBusyTime 	3.949023926971
scalar Scenario2.node[132].veinsmobility 	startTime 	13
scalar Scenario2.node[132].veinsmobility 	totalTime 	33
scalar Scenario2.node[132].veinsmobility 	stopTime 	47
scalar Scenario2.node[132].veinsmobility 	minSpeed 	1.0325582238956
scalar Scenario2.node[132].veinsmobility 	maxSpeed 	18.997862700217
scalar Scenario2.node[132].veinsmobility 	totalDistance 	503.42720242976
scalar Scenario2.node[132].veinsmobility 	totalCO2Emission 	123.10429419579
scalar Scenario2.node[127].appl 	generatedWSMs 	1
scalar Scenario2.node[127].appl 	receivedWSMs 	104
scalar Scenario2.node[127].appl 	generatedBSMs 	350
scalar Scenario2.node[127].appl 	receivedBSMs 	37181
scalar Scenario2.node[127].appl 	generatedWSAs 	0
scalar Scenario2.node[127].appl 	receivedWSAs 	0
scalar Scenario2.node[127].appl 	delayWSM 	2.01234104234
scalar Scenario2.node[127].appl 	Dist_Propa 	320.54471163362
scalar Scenario2.node[127].nic.phy80211p 	busyTime 	0.11959314285712
scalar Scenario2.node[127].nic.phy80211p 	ncollisions 	1487
scalar Scenario2.node[127].nic.mac1609_4 	ReceivedUnicastPackets 	0
scalar Scenario2.node[127].nic.mac1609_4 	ReceivedBroadcasts 	37285
scalar Scenario2.node[127].nic.mac1609_4 	SentPackets 	351
scalar Scenario2.node[127].nic.mac1609_4 	SNIRLostPackets 	2815
scalar Scenario2.node[127].nic.mac1609_4 	RXTXLostPackets 	0
scalar Scenario2.node[127].nic.mac1609_4 	TotalLostPackets 	2815
scalar Scenario2.node[127].nic.mac1609_4 	DroppedPacketsInMac 	0
scalar Scenario2.node[127].nic.mac1609_4 	TooLittleTime 	0
scalar Scenario2.node[127].nic.mac1609_4 	TimesIntoBackoff 	352
scalar Scenario2.node[127].nic.mac1609_4 	SlotsBackoff 	502
scalar Scenario2.node[127].nic.mac1609_4 	NumInternalContention 	0
scalar Scenario2.node[127].nic.mac1609_4 	totalBusyTime 	4.083871985247
scalar Scenario2.node[127].veinsmobility 	startTime 	12
scalar Scenario2.node[127].veinsmobility 	totalTime 	34
scalar Scenario2.node[127].veinsmobility 	stopTime 	47
scalar Scenario2.node[127].veinsmobility 	minSpeed 	3.570553295702
scalar Scenario2.node[127].veinsmobility 	maxSpeed 	18.975364867717
scalar Scenario2.node[127].veinsmobility 	totalDistance 	531.42299839614
scalar Scenario2.node[127].veinsmobility 	totalCO2Emission 	124.39114956524
scalar Scenario2.node[137].appl 	generatedWSMs 	1
scalar Scenario2.node[137].appl 	receivedWSMs 	113
scalar Scenario2.node[137].appl 	generatedBSMs 	340
scalar Scenario2.node[137].appl 	receivedBSMs 	36181
scalar Scenario2.node[137].appl 	generatedWSAs 	0
scalar Scenario2.node[137].appl 	receivedWSAs 	0
scalar Scenario2.node[137].appl 	delayWSM 	2.012340967912
scalar Scenario2.node[137].appl 	Dist_Propa 	350.9802077814
scalar Scenario2.node[137].nic.phy80211p 	busyTime 	0.12002494117644
scalar Scenario2.node[137].nic.phy80211p 	ncollisions 	1465
scalar Scenario2.node[137].nic.mac1609_4 	ReceivedUnicastPackets 	0
scalar Scenario2.node[137].nic.mac1609_4 	ReceivedBroadcasts 	36294
scalar Scenario2.node[137].nic.mac1609_4 	SentPackets 	341
scalar Scenario2.node[137].nic.mac1609_4 	SNIRLostPackets 	2780
scalar Scenario2.node[137].nic.mac1609_4 	RXTXLostPackets 	0
scalar Scenario2.node[137].nic.mac1609_4 	TotalLostPackets 	2780
scalar Scenario2.node[137].nic.mac1609_4 	DroppedPacketsInMac 	0
scalar Scenario2.node[137].nic.mac1609_4 	TooLittleTime 	0
scalar Scenario2.node[137].nic.mac1609_4 	TimesIntoBackoff 	341
scalar Scenario2.node[137].nic.mac1609_4 	SlotsBackoff 	487
scalar Scenario2.node[137].nic.mac1609_4 	NumInternalContention 	0
scalar Scenario2.node[137].nic.mac1609_4 	totalBusyTime 	3.979381431868
scalar Scenario2.node[137].veinsmobility 	startTime 	15
scalar Scenario2.node[137].veinsmobility 	totalTime 	33
scalar Scenario2.node[137].veinsmobility 	stopTime 	49
scalar Scenario2.node[137].veinsmobility 	minSpeed 	3.7054345497005
scalar Scenario2.node[137].veinsmobility 	maxSpeed 	18.949315995281
scalar Scenario2.node[137].veinsmobility 	totalDistance 	521.67415162342
scalar Scenario2.node[137].veinsmobility 	totalCO2Emission 	120.89327527729
scalar Scenario2.node[141].appl 	generatedWSMs 	1
scalar Scenario2.node[141].appl 	receivedWSMs 	114
scalar Scenario2.node[141].appl 	generatedBSMs 	340
scalar Scenario2.node[141].appl 	receivedBSMs 	36387
scalar Scenario2.node[141].appl 	generatedWSAs 	0
scalar Scenario2.node[141].appl 	receivedWSAs 	0
scalar Scenario2.node[141].appl 	delayWSM 	2.012340967162
scalar Scenario2.node[141].appl 	Dist_Propa 	347.68638762327
scalar Scenario2.node[141].nic.phy80211p 	busyTime 	0.1206336470588
scalar Scenario2.node[141].nic.phy80211p 	ncollisions 	1443
scalar Scenario2.node[141].nic.mac1609_4 	ReceivedUnicastPackets 	0
scalar Scenario2.node[141].nic.mac1609_4 	ReceivedBroadcasts 	36501
scalar Scenario2.node[141].nic.mac1609_4 	SentPackets 	341
scalar Scenario2.node[141].nic.mac1609_4 	SNIRLostPackets 	2772
scalar Scenario2.node[141].nic.mac1609_4 	RXTXLostPackets 	1
scalar Scenario2.node[141].nic.mac1609_4 	TotalLostPackets 	2773
scalar Scenario2.node[141].nic.mac1609_4 	DroppedPacketsInMac 	0
scalar Scenario2.node[141].nic.mac1609_4 	TooLittleTime 	0
scalar Scenario2.node[141].nic.mac1609_4 	TimesIntoBackoff 	342
scalar Scenario2.node[141].nic.mac1609_4 	SlotsBackoff 	498
scalar Scenario2.node[141].nic.mac1609_4 	NumInternalContention 	0
scalar Scenario2.node[141].nic.mac1609_4 	totalBusyTime 	3.998978699549
scalar Scenario2.node[141].veinsmobility 	startTime 	15
scalar Scenario2.node[141].veinsmobility 	totalTime 	33
scalar Scenario2.node[141].veinsmobility 	stopTime 	49
scalar Scenario2.node[141].veinsmobility 	minSpeed 	2.4699518346809
scalar Scenario2.node[141].veinsmobility 	maxSpeed 	18.998616740918
scalar Scenario2.node[141].veinsmobility 	totalDistance 	536.39102144913
scalar Scenario2.node[141].veinsmobility 	totalCO2Emission 	124.36501758974
scalar Scenario2.node[105].appl 	generatedWSMs 	1
scalar Scenario2.node[105].appl 	receivedWSMs 	131
scalar Scenario2.node[105].appl 	generatedBSMs 	420
scalar Scenario2.node[105].appl 	receivedBSMs 	45611
scalar Scenario2.node[105].appl 	generatedWSAs 	0
scalar Scenario2.node[105].appl 	receivedWSAs 	0
scalar Scenario2.node[105].appl 	delayWSM 	0.000273051413
scalar Scenario2.node[105].appl 	Dist_Propa 	488.78747738736
scalar Scenario2.node[105].nic.phy80211p 	busyTime 	0.1231470476191
scalar Scenario2.node[105].nic.phy80211p 	ncollisions 	1858
scalar Scenario2.node[105].nic.mac1609_4 	ReceivedUnicastPackets 	0
scalar Scenario2.node[105].nic.mac1609_4 	ReceivedBroadcasts 	45742
scalar Scenario2.node[105].nic.mac1609_4 	SentPackets 	421
scalar Scenario2.node[105].nic.mac1609_4 	SNIRLostPackets 	3796
scalar Scenario2.node[105].nic.mac1609_4 	RXTXLostPackets 	0
scalar Scenario2.node[105].nic.mac1609_4 	TotalLostPackets 	3796
scalar Scenario2.node[105].nic.mac1609_4 	DroppedPacketsInMac 	0
scalar Scenario2.node[105].nic.mac1609_4 	TooLittleTime 	0
scalar Scenario2.node[105].nic.mac1609_4 	TimesIntoBackoff 	421
scalar Scenario2.node[105].nic.mac1609_4 	SlotsBackoff 	646
scalar Scenario2.node[105].nic.mac1609_4 	NumInternalContention 	0
scalar Scenario2.node[105].nic.mac1609_4 	totalBusyTime 	5.014447535096
scalar Scenario2.node[105].veinsmobility 	startTime 	7
scalar Scenario2.node[105].veinsmobility 	totalTime 	41
scalar Scenario2.node[105].veinsmobility 	stopTime 	49
scalar Scenario2.node[105].veinsmobility 	minSpeed 	0.79846306713479
scalar Scenario2.node[105].veinsmobility 	maxSpeed 	18.9987192666
scalar Scenario2.node[105].veinsmobility 	totalDistance 	574.23690866301
scalar Scenario2.node[105].veinsmobility 	totalCO2Emission 	139.39240827924
scalar Scenario2.node[163].appl 	generatedWSMs 	1
scalar Scenario2.node[163].appl 	receivedWSMs 	121
scalar Scenario2.node[163].appl 	generatedBSMs 	320
scalar Scenario2.node[163].appl 	receivedBSMs 	35111
scalar Scenario2.node[163].appl 	generatedWSAs 	0
scalar Scenario2.node[163].appl 	receivedWSAs 	0
scalar Scenario2.node[163].appl 	delayWSM 	2.012340870824
scalar Scenario2.node[163].appl 	Dist_Propa 	382.54662118129
scalar Scenario2.node[163].nic.phy80211p 	busyTime 	0.12355099999996
scalar Scenario2.node[163].nic.phy80211p 	ncollisions 	1308
scalar Scenario2.node[163].nic.mac1609_4 	ReceivedUnicastPackets 	0
scalar Scenario2.node[163].nic.mac1609_4 	ReceivedBroadcasts 	35232
scalar Scenario2.node[163].nic.mac1609_4 	SentPackets 	321
scalar Scenario2.node[163].nic.mac1609_4 	SNIRLostPackets 	2604
scalar Scenario2.node[163].nic.mac1609_4 	RXTXLostPackets 	0
scalar Scenario2.node[163].nic.mac1609_4 	TotalLostPackets 	2604
scalar Scenario2.node[163].nic.mac1609_4 	DroppedPacketsInMac 	0
scalar Scenario2.node[163].nic.mac1609_4 	TooLittleTime 	0
scalar Scenario2.node[163].nic.mac1609_4 	TimesIntoBackoff 	561
scalar Scenario2.node[163].nic.mac1609_4 	SlotsBackoff 	835
scalar Scenario2.node[163].nic.mac1609_4 	NumInternalContention 	0
scalar Scenario2.node[163].nic.mac1609_4 	totalBusyTime 	3.851657686808
scalar Scenario2.node[163].veinsmobility 	startTime 	18
scalar Scenario2.node[163].veinsmobility 	totalTime 	31
scalar Scenario2.node[163].veinsmobility 	stopTime 	50
scalar Scenario2.node[163].veinsmobility 	minSpeed 	3.2362021176079
scalar Scenario2.node[163].veinsmobility 	maxSpeed 	18.995516344768
scalar Scenario2.node[163].veinsmobility 	totalDistance 	507.69244103002
scalar Scenario2.node[163].veinsmobility 	totalCO2Emission 	119.51915105506
scalar Scenario2.node[164].appl 	generatedWSMs 	1
scalar Scenario2.node[164].appl 	receivedWSMs 	138
scalar Scenario2.node[164].appl 	generatedBSMs 	330
scalar Scenario2.node[164].appl 	receivedBSMs 	37588
scalar Scenario2.node[164].appl 	generatedWSAs 	0
scalar Scenario2.node[164].appl 	receivedWSAs 	0
scalar Scenario2.node[164].appl 	delayWSM 	0.000272973368
scalar Scenario2.node[164].appl 	Dist_Propa 	526.79441376929
scalar Scenario2.node[164].nic.phy80211p 	busyTime 	0.12917115151514
scalar Scenario2.node[164].nic.phy80211p 	ncollisions 	1572
scalar Scenario2.node[164].nic.mac1609_4 	ReceivedUnicastPackets 	0
scalar Scenario2.node[164].nic.mac1609_4 	ReceivedBroadcasts 	37726
scalar Scenario2.node[164].nic.mac1609_4 	SentPackets 	331
scalar Scenario2.node[164].nic.mac1609_4 	SNIRLostPackets 	3053
scalar Scenario2.node[164].nic.mac1609_4 	RXTXLostPackets 	0
scalar Scenario2.node[164].nic.mac1609_4 	TotalLostPackets 	3053
scalar Scenario2.node[164].nic.mac1609_4 	DroppedPacketsInMac 	0
scalar Scenario2.node[164].nic.mac1609_4 	TooLittleTime 	0
scalar Scenario2.node[164].nic.mac1609_4 	TimesIntoBackoff 	332
scalar Scenario2.node[164].nic.mac1609_4 	SlotsBackoff 	477
scalar Scenario2.node[164].nic.mac1609_4 	NumInternalContention 	0
scalar Scenario2.node[164].nic.mac1609_4 	totalBusyTime 	4.142328689002
scalar Scenario2.node[164].veinsmobility 	startTime 	18
scalar Scenario2.node[164].veinsmobility 	totalTime 	32
scalar Scenario2.node[164].veinsmobility 	stopTime 	51
scalar Scenario2.node[164].veinsmobility 	minSpeed 	2.6560707084217
scalar Scenario2.node[164].veinsmobility 	maxSpeed 	18.995079022406
scalar Scenario2.node[164].veinsmobility 	totalDistance 	520.46900373988
scalar Scenario2.node[164].veinsmobility 	totalCO2Emission 	121.70739795369
scalar Scenario2.node[151].appl 	generatedWSMs 	1
scalar Scenario2.node[151].appl 	receivedWSMs 	126
scalar Scenario2.node[151].appl 	generatedBSMs 	350
scalar Scenario2.node[151].appl 	receivedBSMs 	40164
scalar Scenario2.node[151].appl 	generatedWSAs 	0
scalar Scenario2.node[151].appl 	receivedWSAs 	0
scalar Scenario2.node[151].appl 	delayWSM 	0.000273263717
scalar Scenario2.node[151].appl 	Dist_Propa 	188.30540535788
scalar Scenario2.node[151].nic.phy80211p 	busyTime 	0.12892137142858
scalar Scenario2.node[151].nic.phy80211p 	ncollisions 	1443
scalar Scenario2.node[151].nic.mac1609_4 	ReceivedUnicastPackets 	0
scalar Scenario2.node[151].nic.mac1609_4 	ReceivedBroadcasts 	40290
scalar Scenario2.node[151].nic.mac1609_4 	SentPackets 	351
scalar Scenario2.node[151].nic.mac1609_4 	SNIRLostPackets 	2905
scalar Scenario2.node[151].nic.mac1609_4 	RXTXLostPackets 	91
scalar Scenario2.node[151].nic.mac1609_4 	TotalLostPackets 	2996
scalar Scenario2.node[151].nic.mac1609_4 	DroppedPacketsInMac 	0
scalar Scenario2.node[151].nic.mac1609_4 	TooLittleTime 	0
scalar Scenario2.node[151].nic.mac1609_4 	TimesIntoBackoff 	413
scalar Scenario2.node[151].nic.mac1609_4 	SlotsBackoff 	581
scalar Scenario2.node[151].nic.mac1609_4 	NumInternalContention 	0
scalar Scenario2.node[151].nic.mac1609_4 	totalBusyTime 	4.397173327102
scalar Scenario2.node[151].veinsmobility 	startTime 	16
scalar Scenario2.node[151].veinsmobility 	totalTime 	34
scalar Scenario2.node[151].veinsmobility 	stopTime 	51
scalar Scenario2.node[151].veinsmobility 	minSpeed 	1.4619825295685
scalar Scenario2.node[151].veinsmobility 	maxSpeed 	18.99749420386
scalar Scenario2.node[151].veinsmobility 	totalDistance 	519.28776174372
scalar Scenario2.node[151].veinsmobility 	totalCO2Emission 	125.8211529421
scalar Scenario2.node[145].appl 	generatedWSMs 	1
scalar Scenario2.node[145].appl 	receivedWSMs 	127
scalar Scenario2.node[145].appl 	generatedBSMs 	350
scalar Scenario2.node[145].appl 	receivedBSMs 	40151
scalar Scenario2.node[145].appl 	generatedWSAs 	0
scalar Scenario2.node[145].appl 	receivedWSAs 	0
scalar Scenario2.node[145].appl 	delayWSM 	0.000273264191
scalar Scenario2.node[145].appl 	Dist_Propa 	190.86144924829
scalar Scenario2.node[145].nic.phy80211p 	busyTime 	0.12933074285715
scalar Scenario2.node[145].nic.phy80211p 	ncollisions 	1490
scalar Scenario2.node[145].nic.mac1609_4 	ReceivedUnicastPackets 	0
scalar Scenario2.node[145].nic.mac1609_4 	ReceivedBroadcasts 	40278
scalar Scenario2.node[145].nic.mac1609_4 	SentPackets 	351
scalar Scenario2.node[145].nic.mac1609_4 	SNIRLostPackets 	3056
scalar Scenario2.node[145].nic.mac1609_4 	RXTXLostPackets 	2
scalar Scenario2.node[145].nic.mac1609_4 	TotalLostPackets 	3058
scalar Scenario2.node[145].nic.mac1609_4 	DroppedPacketsInMac 	0
scalar Scenario2.node[145].nic.mac1609_4 	TooLittleTime 	0
scalar Scenario2.node[145].nic.mac1609_4 	TimesIntoBackoff 	353
scalar Scenario2.node[145].nic.mac1609_4 	SlotsBackoff 	523
scalar Scenario2.node[145].nic.mac1609_4 	NumInternalContention 	0
scalar Scenario2.node[145].nic.mac1609_4 	totalBusyTime 	4.399773088747
scalar Scenario2.node[145].veinsmobility 	startTime 	16
scalar Scenario2.node[145].veinsmobility 	totalTime 	34
scalar Scenario2.node[145].veinsmobility 	stopTime 	51
scalar Scenario2.node[145].veinsmobility 	minSpeed 	3.482900294836
scalar Scenario2.node[145].veinsmobility 	maxSpeed 	18.993171909307
scalar Scenario2.node[145].veinsmobility 	totalDistance 	528.29977957109
scalar Scenario2.node[145].veinsmobility 	totalCO2Emission 	124.25854551765
scalar Scenario2.node[30].appl 	generatedWSMs 	1
scalar Scenario2.node[30].appl 	receivedWSMs 	140
scalar Scenario2.node[30].appl 	generatedBSMs 	510
scalar Scenario2.node[30].appl 	receivedBSMs 	55562
scalar Scenario2.node[30].appl 	generatedWSAs 	0
scalar Scenario2.node[30].appl 	receivedWSAs 	0
scalar Scenario2.node[30].appl 	delayWSM 	0.000272939641
scalar Scenario2.node[30].appl 	Dist_Propa 	547.21728368944
scalar Scenario2.node[30].nic.phy80211p 	busyTime 	0.12181694117658
scalar Scenario2.node[30].nic.phy80211p 	ncollisions 	1672
scalar Scenario2.node[30].nic.mac1609_4 	ReceivedUnicastPackets 	0
scalar Scenario2.node[30].nic.mac1609_4 	ReceivedBroadcasts 	55702
scalar Scenario2.node[30].nic.mac1609_4 	SentPackets 	511
scalar Scenario2.node[30].nic.mac1609_4 	SNIRLostPackets 	3821
scalar Scenario2.node[30].nic.mac1609_4 	RXTXLostPackets 	1
scalar Scenario2.node[30].nic.mac1609_4 	TotalLostPackets 	3822
scalar Scenario2.node[30].nic.mac1609_4 	DroppedPacketsInMac 	0
scalar Scenario2.node[30].nic.mac1609_4 	TooLittleTime 	0
scalar Scenario2.node[30].nic.mac1609_4 	TimesIntoBackoff 	513
scalar Scenario2.node[30].nic.mac1609_4 	SlotsBackoff 	846
scalar Scenario2.node[30].nic.mac1609_4 	NumInternalContention 	0
scalar Scenario2.node[30].nic.mac1609_4 	totalBusyTime 	6.041160061104
scalar Scenario2.node[30].veinsmobility 	startTime 	1
scalar Scenario2.node[30].veinsmobility 	totalTime 	50
scalar Scenario2.node[30].veinsmobility 	stopTime 	52
scalar Scenario2.node[30].veinsmobility 	minSpeed 	2.6830987371857
scalar Scenario2.node[30].veinsmobility 	maxSpeed 	18.998360855293
scalar Scenario2.node[30].veinsmobility 	totalDistance 	840.56722214892
scalar Scenario2.node[30].veinsmobility 	totalCO2Emission 	180.75164650604
scalar Scenario2.node[7].appl 	generatedWSMs 	1
scalar Scenario2.node[7].appl 	receivedWSMs 	131
scalar Scenario2.node[7].appl 	generatedBSMs 	520
scalar Scenario2.node[7].appl 	receivedBSMs 	55922
scalar Scenario2.node[7].appl 	generatedWSAs 	0
scalar Scenario2.node[7].appl 	receivedWSAs 	0
scalar Scenario2.node[7].appl 	delayWSM 	0.000273198386
scalar Scenario2.node[7].appl 	Dist_Propa 	183.93798667698
scalar Scenario2.node[7].nic.phy80211p 	busyTime 	0.12107630769242
scalar Scenario2.node[7].nic.phy80211p 	ncollisions 	1927
scalar Scenario2.node[7].nic.mac1609_4 	ReceivedUnicastPackets 	0
scalar Scenario2.node[7].nic.mac1609_4 	ReceivedBroadcasts 	56053
scalar Scenario2.node[7].nic.mac1609_4 	SentPackets 	521
scalar Scenario2.node[7].nic.mac1609_4 	SNIRLostPackets 	4287
scalar Scenario2.node[7].nic.mac1609_4 	RXTXLostPackets 	1
scalar Scenario2.node[7].nic.mac1609_4 	TotalLostPackets 	4288
scalar Scenario2.node[7].nic.mac1609_4 	DroppedPacketsInMac 	0
scalar Scenario2.node[7].nic.mac1609_4 	TooLittleTime 	0
scalar Scenario2.node[7].nic.mac1609_4 	TimesIntoBackoff 	522
scalar Scenario2.node[7].nic.mac1609_4 	SlotsBackoff 	828
scalar Scenario2.node[7].nic.mac1609_4 	NumInternalContention 	0
scalar Scenario2.node[7].nic.mac1609_4 	totalBusyTime 	6.103879255663
scalar Scenario2.node[7].veinsmobility 	startTime 	1
scalar Scenario2.node[7].veinsmobility 	totalTime 	51
scalar Scenario2.node[7].veinsmobility 	stopTime 	53
scalar Scenario2.node[7].veinsmobility 	minSpeed 	3.4814017046965
scalar Scenario2.node[7].veinsmobility 	maxSpeed 	18.941884985482
scalar Scenario2.node[7].veinsmobility 	totalDistance 	681.4852853963
scalar Scenario2.node[7].veinsmobility 	totalCO2Emission 	169.58589405808
scalar Scenario2.node[172].appl 	generatedWSMs 	1
scalar Scenario2.node[172].appl 	receivedWSMs 	132
scalar Scenario2.node[172].appl 	generatedBSMs 	330
scalar Scenario2.node[172].appl 	receivedBSMs 	37468
scalar Scenario2.node[172].appl 	generatedWSAs 	0
scalar Scenario2.node[172].appl 	receivedWSAs 	0
scalar Scenario2.node[172].appl 	delayWSM 	0.000273166454
scalar Scenario2.node[172].appl 	Dist_Propa 	218.07971375174
scalar Scenario2.node[172].nic.phy80211p 	busyTime 	0.12815515151513
scalar Scenario2.node[172].nic.phy80211p 	ncollisions 	1389
scalar Scenario2.node[172].nic.mac1609_4 	ReceivedUnicastPackets 	0
scalar Scenario2.node[172].nic.mac1609_4 	ReceivedBroadcasts 	37600
scalar Scenario2.node[172].nic.mac1609_4 	SentPackets 	331
scalar Scenario2.node[172].nic.mac1609_4 	SNIRLostPackets 	2864
scalar Scenario2.node[172].nic.mac1609_4 	RXTXLostPackets 	19
scalar Scenario2.node[172].nic.mac1609_4 	TotalLostPackets 	2883
scalar Scenario2.node[172].nic.mac1609_4 	DroppedPacketsInMac 	0
scalar Scenario2.node[172].nic.mac1609_4 	TooLittleTime 	0
scalar Scenario2.node[172].nic.mac1609_4 	TimesIntoBackoff 	580
scalar Scenario2.node[172].nic.mac1609_4 	SlotsBackoff 	897
scalar Scenario2.node[172].nic.mac1609_4 	NumInternalContention 	0
scalar Scenario2.node[172].nic.mac1609_4 	totalBusyTime 	4.109067876967
scalar Scenario2.node[172].veinsmobility 	startTime 	20
scalar Scenario2.node[172].veinsmobility 	totalTime 	32
scalar Scenario2.node[172].veinsmobility 	stopTime 	53
scalar Scenario2.node[172].veinsmobility 	minSpeed 	2.4127571361848
scalar Scenario2.node[172].veinsmobility 	maxSpeed 	18.994554119785
scalar Scenario2.node[172].veinsmobility 	totalDistance 	522.38118095875
scalar Scenario2.node[172].veinsmobility 	totalCO2Emission 	122.12195354617
scalar Scenario2.node[1].appl 	generatedWSMs 	1
scalar Scenario2.node[1].appl 	receivedWSMs 	135
scalar Scenario2.node[1].appl 	generatedBSMs 	530
scalar Scenario2.node[1].appl 	receivedBSMs 	58119
scalar Scenario2.node[1].appl 	generatedWSAs 	0
scalar Scenario2.node[1].appl 	receivedWSAs 	0
scalar Scenario2.node[1].appl 	delayWSM 	0.000273134981
scalar Scenario2.node[1].appl 	Dist_Propa 	179.16403219133
scalar Scenario2.node[1].nic.phy80211p 	busyTime 	0.12347064150956
scalar Scenario2.node[1].nic.phy80211p 	ncollisions 	1988
scalar Scenario2.node[1].nic.mac1609_4 	ReceivedUnicastPackets 	0
scalar Scenario2.node[1].nic.mac1609_4 	ReceivedBroadcasts 	58254
scalar Scenario2.node[1].nic.mac1609_4 	SentPackets 	531
scalar Scenario2.node[1].nic.mac1609_4 	SNIRLostPackets 	4463
scalar Scenario2.node[1].nic.mac1609_4 	RXTXLostPackets 	0
scalar Scenario2.node[1].nic.mac1609_4 	TotalLostPackets 	4463
scalar Scenario2.node[1].nic.mac1609_4 	DroppedPacketsInMac 	0
scalar Scenario2.node[1].nic.mac1609_4 	TooLittleTime 	0
scalar Scenario2.node[1].nic.mac1609_4 	TimesIntoBackoff 	531
scalar Scenario2.node[1].nic.mac1609_4 	SlotsBackoff 	791
scalar Scenario2.node[1].nic.mac1609_4 	NumInternalContention 	0
scalar Scenario2.node[1].nic.mac1609_4 	totalBusyTime 	6.340507275436
scalar Scenario2.node[1].veinsmobility 	startTime 	1
scalar Scenario2.node[1].veinsmobility 	totalTime 	52
scalar Scenario2.node[1].veinsmobility 	stopTime 	54
scalar Scenario2.node[1].veinsmobility 	minSpeed 	3.7822135175928
scalar Scenario2.node[1].veinsmobility 	maxSpeed 	18.973847482234
scalar Scenario2.node[1].veinsmobility 	totalDistance 	704.43927912732
scalar Scenario2.node[1].veinsmobility 	totalCO2Emission 	171.29382234949
scalar Scenario2.node[0].appl 	generatedWSMs 	1
scalar Scenario2.node[0].appl 	receivedWSMs 	139
scalar Scenario2.node[0].appl 	generatedBSMs 	540
scalar Scenario2.node[0].appl 	receivedBSMs 	60181
scalar Scenario2.node[0].appl 	generatedWSAs 	0
scalar Scenario2.node[0].appl 	receivedWSAs 	0
scalar Scenario2.node[0].appl 	delayWSM 	0.000273074416
scalar Scenario2.node[0].appl 	Dist_Propa 	174.10324431344
scalar Scenario2.node[0].nic.phy80211p 	busyTime 	0.12521155555569
scalar Scenario2.node[0].nic.phy80211p 	ncollisions 	1942
scalar Scenario2.node[0].nic.mac1609_4 	ReceivedUnicastPackets 	0
scalar Scenario2.node[0].nic.mac1609_4 	ReceivedBroadcasts 	60320
scalar Scenario2.node[0].nic.mac1609_4 	SentPackets 	541
scalar Scenario2.node[0].nic.mac1609_4 	SNIRLostPackets 	4482
scalar Scenario2.node[0].nic.mac1609_4 	RXTXLostPackets 	0
scalar Scenario2.node[0].nic.mac1609_4 	TotalLostPackets 	4482
scalar Scenario2.node[0].nic.mac1609_4 	DroppedPacketsInMac 	0
scalar Scenario2.node[0].nic.mac1609_4 	TooLittleTime 	0
scalar Scenario2.node[0].nic.mac1609_4 	TimesIntoBackoff 	541
scalar Scenario2.node[0].nic.mac1609_4 	SlotsBackoff 	769
scalar Scenario2.node[0].nic.mac1609_4 	NumInternalContention 	0
scalar Scenario2.node[0].nic.mac1609_4 	totalBusyTime 	6.552021077111
scalar Scenario2.node[0].veinsmobility 	startTime 	1
scalar Scenario2.node[0].veinsmobility 	totalTime 	53
scalar Scenario2.node[0].veinsmobility 	stopTime 	55
scalar Scenario2.node[0].veinsmobility 	minSpeed 	4.0518554631622
scalar Scenario2.node[0].veinsmobility 	maxSpeed 	18.978534762523
scalar Scenario2.node[0].veinsmobility 	totalDistance 	722.21584162014
scalar Scenario2.node[0].veinsmobility 	totalCO2Emission 	172.20829987187
scalar Scenario2.node[187].appl 	generatedWSMs 	1
scalar Scenario2.node[187].appl 	receivedWSMs 	139
scalar Scenario2.node[187].appl 	generatedBSMs 	320
scalar Scenario2.node[187].appl 	receivedBSMs 	36398
scalar Scenario2.node[187].appl 	generatedWSAs 	0
scalar Scenario2.node[187].appl 	receivedWSAs 	0
scalar Scenario2.node[187].appl 	delayWSM 	0.000272999174
scalar Scenario2.node[187].appl 	Dist_Propa 	97.181615332872
scalar Scenario2.node[187].nic.phy80211p 	busyTime 	0.12950299999997
scalar Scenario2.node[187].nic.phy80211p 	ncollisions 	1512
scalar Scenario2.node[187].nic.mac1609_4 	ReceivedUnicastPackets 	0
scalar Scenario2.node[187].nic.mac1609_4 	ReceivedBroadcasts 	36537
scalar Scenario2.node[187].nic.mac1609_4 	SentPackets 	321
scalar Scenario2.node[187].nic.mac1609_4 	SNIRLostPackets 	3091
scalar Scenario2.node[187].nic.mac1609_4 	RXTXLostPackets 	0
scalar Scenario2.node[187].nic.mac1609_4 	TotalLostPackets 	3091
scalar Scenario2.node[187].nic.mac1609_4 	DroppedPacketsInMac 	0
scalar Scenario2.node[187].nic.mac1609_4 	TooLittleTime 	0
scalar Scenario2.node[187].nic.mac1609_4 	TimesIntoBackoff 	322
scalar Scenario2.node[187].nic.mac1609_4 	SlotsBackoff 	482
scalar Scenario2.node[187].nic.mac1609_4 	NumInternalContention 	0
scalar Scenario2.node[187].nic.mac1609_4 	totalBusyTime 	4.011153081108
scalar Scenario2.node[187].veinsmobility 	startTime 	24
scalar Scenario2.node[187].veinsmobility 	totalTime 	31
scalar Scenario2.node[187].veinsmobility 	stopTime 	56
scalar Scenario2.node[187].veinsmobility 	minSpeed 	3.5479495325158
scalar Scenario2.node[187].veinsmobility 	maxSpeed 	18.989325714761
scalar Scenario2.node[187].veinsmobility 	totalDistance 	512.82987526149
scalar Scenario2.node[187].veinsmobility 	totalCO2Emission 	119.00436191503
scalar Scenario2.node[59].appl 	generatedWSMs 	1
scalar Scenario2.node[59].appl 	receivedWSMs 	140
scalar Scenario2.node[59].appl 	generatedBSMs 	540
scalar Scenario2.node[59].appl 	receivedBSMs 	61822
scalar Scenario2.node[59].appl 	generatedWSAs 	0
scalar Scenario2.node[59].appl 	receivedWSAs 	0
scalar Scenario2.node[59].appl 	delayWSM 	0.000273016348
scalar Scenario2.node[59].appl 	Dist_Propa 	165.13211160877
scalar Scenario2.node[59].nic.phy80211p 	busyTime 	0.12833718518533
scalar Scenario2.node[59].nic.phy80211p 	ncollisions 	1940
scalar Scenario2.node[59].nic.mac1609_4 	ReceivedUnicastPackets 	0
scalar Scenario2.node[59].nic.mac1609_4 	ReceivedBroadcasts 	61962
scalar Scenario2.node[59].nic.mac1609_4 	SentPackets 	541
scalar Scenario2.node[59].nic.mac1609_4 	SNIRLostPackets 	4458
scalar Scenario2.node[59].nic.mac1609_4 	RXTXLostPackets 	126
scalar Scenario2.node[59].nic.mac1609_4 	TotalLostPackets 	4584
scalar Scenario2.node[59].nic.mac1609_4 	DroppedPacketsInMac 	0
scalar Scenario2.node[59].nic.mac1609_4 	TooLittleTime 	0
scalar Scenario2.node[59].nic.mac1609_4 	TimesIntoBackoff 	870
scalar Scenario2.node[59].nic.mac1609_4 	SlotsBackoff 	1328
scalar Scenario2.node[59].nic.mac1609_4 	NumInternalContention 	0
scalar Scenario2.node[59].nic.mac1609_4 	totalBusyTime 	6.722709295462
scalar Scenario2.node[59].veinsmobility 	startTime 	2
scalar Scenario2.node[59].veinsmobility 	totalTime 	53
scalar Scenario2.node[59].veinsmobility 	stopTime 	56
scalar Scenario2.node[59].veinsmobility 	minSpeed 	3.6013252442564
scalar Scenario2.node[59].veinsmobility 	maxSpeed 	18.987841719773
scalar Scenario2.node[59].veinsmobility 	totalDistance 	716.20343049081
scalar Scenario2.node[59].veinsmobility 	totalCO2Emission 	168.97854168429
scalar Scenario2.node[79].appl 	generatedWSMs 	1
scalar Scenario2.node[79].appl 	receivedWSMs 	142
scalar Scenario2.node[79].appl 	generatedBSMs 	530
scalar Scenario2.node[79].appl 	receivedBSMs 	59324
scalar Scenario2.node[79].appl 	generatedWSAs 	0
scalar Scenario2.node[79].appl 	receivedWSAs 	0
scalar Scenario2.node[79].appl 	delayWSM 	0.000272852907
scalar Scenario2.node[79].appl 	Dist_Propa 	427.71731748877
scalar Scenario2.node[79].nic.phy80211p 	busyTime 	0.12692875471711
scalar Scenario2.node[79].nic.phy80211p 	ncollisions 	2499
scalar Scenario2.node[79].nic.mac1609_4 	ReceivedUnicastPackets 	0
scalar Scenario2.node[79].nic.mac1609_4 	ReceivedBroadcasts 	59466
scalar Scenario2.node[79].nic.mac1609_4 	SentPackets 	531
scalar Scenario2.node[79].nic.mac1609_4 	SNIRLostPackets 	5001
scalar Scenario2.node[79].nic.mac1609_4 	RXTXLostPackets 	0
scalar Scenario2.node[79].nic.mac1609_4 	TotalLostPackets 	5001
scalar Scenario2.node[79].nic.mac1609_4 	DroppedPacketsInMac 	0
scalar Scenario2.node[79].nic.mac1609_4 	TooLittleTime 	0
scalar Scenario2.node[79].nic.mac1609_4 	TimesIntoBackoff 	531
scalar Scenario2.node[79].nic.mac1609_4 	SlotsBackoff 	781
scalar Scenario2.node[79].nic.mac1609_4 	NumInternalContention 	0
scalar Scenario2.node[79].nic.mac1609_4 	totalBusyTime 	6.520213398685
scalar Scenario2.node[79].veinsmobility 	startTime 	3
scalar Scenario2.node[79].veinsmobility 	totalTime 	52
scalar Scenario2.node[79].veinsmobility 	stopTime 	56
scalar Scenario2.node[79].veinsmobility 	minSpeed 	2.4267099683262
scalar Scenario2.node[79].veinsmobility 	maxSpeed 	18.985454387709
scalar Scenario2.node[79].veinsmobility 	totalDistance 	605.76482859178
scalar Scenario2.node[79].veinsmobility 	totalCO2Emission 	160.49542827298
scalar Scenario2.node[184].appl 	generatedWSMs 	1
scalar Scenario2.node[184].appl 	receivedWSMs 	145
scalar Scenario2.node[184].appl 	generatedBSMs 	340
scalar Scenario2.node[184].appl 	receivedBSMs 	40001
scalar Scenario2.node[184].appl 	generatedWSAs 	0
scalar Scenario2.node[184].appl 	receivedWSAs 	0
scalar Scenario2.node[184].appl 	delayWSM 	0.000272940087
scalar Scenario2.node[184].appl 	Dist_Propa 	46.200071672497
scalar Scenario2.node[184].nic.phy80211p 	busyTime 	0.13398470588236
scalar Scenario2.node[184].nic.phy80211p 	ncollisions 	1689
scalar Scenario2.node[184].nic.mac1609_4 	ReceivedUnicastPackets 	0
scalar Scenario2.node[184].nic.mac1609_4 	ReceivedBroadcasts 	40146
scalar Scenario2.node[184].nic.mac1609_4 	SentPackets 	341
scalar Scenario2.node[184].nic.mac1609_4 	SNIRLostPackets 	3429
scalar Scenario2.node[184].nic.mac1609_4 	RXTXLostPackets 	0
scalar Scenario2.node[184].nic.mac1609_4 	TotalLostPackets 	3429
scalar Scenario2.node[184].nic.mac1609_4 	DroppedPacketsInMac 	0
scalar Scenario2.node[184].nic.mac1609_4 	TooLittleTime 	0
scalar Scenario2.node[184].nic.mac1609_4 	TimesIntoBackoff 	341
scalar Scenario2.node[184].nic.mac1609_4 	SlotsBackoff 	529
scalar Scenario2.node[184].nic.mac1609_4 	NumInternalContention 	0
scalar Scenario2.node[184].nic.mac1609_4 	totalBusyTime 	4.40763709199
scalar Scenario2.node[184].veinsmobility 	startTime 	23
scalar Scenario2.node[184].veinsmobility 	totalTime 	33
scalar Scenario2.node[184].veinsmobility 	stopTime 	57
scalar Scenario2.node[184].veinsmobility 	minSpeed 	1.4962625184391
scalar Scenario2.node[184].veinsmobility 	maxSpeed 	18.979892871417
scalar Scenario2.node[184].veinsmobility 	totalDistance 	514.97323348459
scalar Scenario2.node[184].veinsmobility 	totalCO2Emission 	122.9472972326
scalar Scenario2.node[13].appl 	generatedWSMs 	1
scalar Scenario2.node[13].appl 	receivedWSMs 	145
scalar Scenario2.node[13].appl 	generatedBSMs 	560
scalar Scenario2.node[13].appl 	receivedBSMs 	64214
scalar Scenario2.node[13].appl 	generatedWSAs 	0
scalar Scenario2.node[13].appl 	receivedWSAs 	0
scalar Scenario2.node[13].appl 	delayWSM 	0.000272960709
scalar Scenario2.node[13].appl 	Dist_Propa 	151.29448177665
scalar Scenario2.node[13].nic.phy80211p 	busyTime 	0.12853371428587
scalar Scenario2.node[13].nic.phy80211p 	ncollisions 	1857
scalar Scenario2.node[13].nic.mac1609_4 	ReceivedUnicastPackets 	0
scalar Scenario2.node[13].nic.mac1609_4 	ReceivedBroadcasts 	64359
scalar Scenario2.node[13].nic.mac1609_4 	SentPackets 	561
scalar Scenario2.node[13].nic.mac1609_4 	SNIRLostPackets 	4625
scalar Scenario2.node[13].nic.mac1609_4 	RXTXLostPackets 	0
scalar Scenario2.node[13].nic.mac1609_4 	TotalLostPackets 	4625
scalar Scenario2.node[13].nic.mac1609_4 	DroppedPacketsInMac 	0
scalar Scenario2.node[13].nic.mac1609_4 	TooLittleTime 	0
scalar Scenario2.node[13].nic.mac1609_4 	TimesIntoBackoff 	562
scalar Scenario2.node[13].nic.mac1609_4 	SlotsBackoff 	811
scalar Scenario2.node[13].nic.mac1609_4 	NumInternalContention 	0
scalar Scenario2.node[13].nic.mac1609_4 	totalBusyTime 	6.966234231652
scalar Scenario2.node[13].veinsmobility 	startTime 	1
scalar Scenario2.node[13].veinsmobility 	totalTime 	55
scalar Scenario2.node[13].veinsmobility 	stopTime 	57
scalar Scenario2.node[13].veinsmobility 	minSpeed 	3.7319341546602
scalar Scenario2.node[13].veinsmobility 	maxSpeed 	18.914364551105
scalar Scenario2.node[13].veinsmobility 	totalDistance 	760.32197011235
scalar Scenario2.node[13].veinsmobility 	totalCO2Emission 	178.60946014272
scalar Scenario2.node[168].appl 	generatedWSMs 	1
scalar Scenario2.node[168].appl 	receivedWSMs 	150
scalar Scenario2.node[168].appl 	generatedBSMs 	380
scalar Scenario2.node[168].appl 	receivedBSMs 	46471
scalar Scenario2.node[168].appl 	generatedWSAs 	0
scalar Scenario2.node[168].appl 	receivedWSAs 	0
scalar Scenario2.node[168].appl 	delayWSM 	0.000272896292
scalar Scenario2.node[168].appl 	Dist_Propa 	41.208031579475
scalar Scenario2.node[168].nic.phy80211p 	busyTime 	0.13911810526323
scalar Scenario2.node[168].nic.phy80211p 	ncollisions 	1914
scalar Scenario2.node[168].nic.mac1609_4 	ReceivedUnicastPackets 	0
scalar Scenario2.node[168].nic.mac1609_4 	ReceivedBroadcasts 	46621
scalar Scenario2.node[168].nic.mac1609_4 	SentPackets 	381
scalar Scenario2.node[168].nic.mac1609_4 	SNIRLostPackets 	3978
scalar Scenario2.node[168].nic.mac1609_4 	RXTXLostPackets 	0
scalar Scenario2.node[168].nic.mac1609_4 	TotalLostPackets 	3978
scalar Scenario2.node[168].nic.mac1609_4 	DroppedPacketsInMac 	0
scalar Scenario2.node[168].nic.mac1609_4 	TooLittleTime 	0
scalar Scenario2.node[168].nic.mac1609_4 	TimesIntoBackoff 	382
scalar Scenario2.node[168].nic.mac1609_4 	SlotsBackoff 	536
scalar Scenario2.node[168].nic.mac1609_4 	NumInternalContention 	0
scalar Scenario2.node[168].nic.mac1609_4 	totalBusyTime 	5.109022269005
scalar Scenario2.node[168].veinsmobility 	startTime 	20
scalar Scenario2.node[168].veinsmobility 	totalTime 	37
scalar Scenario2.node[168].veinsmobility 	stopTime 	58
scalar Scenario2.node[168].veinsmobility 	minSpeed 	0
scalar Scenario2.node[168].veinsmobility 	maxSpeed 	18.968500454263
scalar Scenario2.node[168].veinsmobility 	totalDistance 	523.20473672205
scalar Scenario2.node[168].veinsmobility 	totalCO2Emission 	132.34195669029
scalar Scenario2.node[9].appl 	generatedWSMs 	1
scalar Scenario2.node[9].appl 	receivedWSMs 	150
scalar Scenario2.node[9].appl 	generatedBSMs 	580
scalar Scenario2.node[9].appl 	receivedBSMs 	66212
scalar Scenario2.node[9].appl 	generatedWSAs 	0
scalar Scenario2.node[9].appl 	receivedWSAs 	0
scalar Scenario2.node[9].appl 	delayWSM 	0.000272907161
scalar Scenario2.node[9].appl 	Dist_Propa 	152.19555821929
scalar Scenario2.node[9].nic.phy80211p 	busyTime 	0.12718013793119
scalar Scenario2.node[9].nic.phy80211p 	ncollisions 	1836
scalar Scenario2.node[9].nic.mac1609_4 	ReceivedUnicastPackets 	0
scalar Scenario2.node[9].nic.mac1609_4 	ReceivedBroadcasts 	66362
scalar Scenario2.node[9].nic.mac1609_4 	SentPackets 	581
scalar Scenario2.node[9].nic.mac1609_4 	SNIRLostPackets 	4334
scalar Scenario2.node[9].nic.mac1609_4 	RXTXLostPackets 	362
scalar Scenario2.node[9].nic.mac1609_4 	TotalLostPackets 	4696
scalar Scenario2.node[9].nic.mac1609_4 	DroppedPacketsInMac 	0
scalar Scenario2.node[9].nic.mac1609_4 	TooLittleTime 	0
scalar Scenario2.node[9].nic.mac1609_4 	TimesIntoBackoff 	582
scalar Scenario2.node[9].nic.mac1609_4 	SlotsBackoff 	862
scalar Scenario2.node[9].nic.mac1609_4 	NumInternalContention 	0
scalar Scenario2.node[9].nic.mac1609_4 	totalBusyTime 	7.174845470131
scalar Scenario2.node[9].veinsmobility 	startTime 	1
scalar Scenario2.node[9].veinsmobility 	totalTime 	57
scalar Scenario2.node[9].veinsmobility 	stopTime 	59
scalar Scenario2.node[9].veinsmobility 	minSpeed 	3.932047590691
scalar Scenario2.node[9].veinsmobility 	maxSpeed 	18.958448226
scalar Scenario2.node[9].veinsmobility 	totalDistance 	820.05985265805
scalar Scenario2.node[9].veinsmobility 	totalCO2Emission 	196.30053678776
scalar Scenario2.node[156].appl 	generatedWSMs 	1
scalar Scenario2.node[156].appl 	receivedWSMs 	152
scalar Scenario2.node[156].appl 	generatedBSMs 	420
scalar Scenario2.node[156].appl 	receivedBSMs 	52661
scalar Scenario2.node[156].appl 	generatedWSAs 	0
scalar Scenario2.node[156].appl 	receivedWSAs 	0
scalar Scenario2.node[156].appl 	delayWSM 	0.000272859086
[...]
scalar Scenario2.node[251].nic.mac1609_4 	DroppedPacketsInMac 	0
scalar Scenario2.node[251].nic.mac1609_4 	TooLittleTime 	0
scalar Scenario2.node[251].nic.mac1609_4 	TimesIntoBackoff 	71
scalar Scenario2.node[251].nic.mac1609_4 	SlotsBackoff 	98
scalar Scenario2.node[251].nic.mac1609_4 	NumInternalContention 	0
scalar Scenario2.node[251].nic.mac1609_4 	totalBusyTime 	0.152607
scalar Scenario2.node[251].veinsmobility 	startTime 	53
scalar Scenario2.node[251].veinsmobility 	totalTime 	7
scalar Scenario2.node[251].veinsmobility 	stopTime 	60
scalar Scenario2.node[251].veinsmobility 	minSpeed 	3.3749732255289
scalar Scenario2.node[251].veinsmobility 	maxSpeed 	14.969494598986
scalar Scenario2.node[251].veinsmobility 	totalDistance 	58.638704761298
scalar Scenario2.node[251].veinsmobility 	totalCO2Emission 	38.710387034317
scalar Scenario2.node[254].appl 	generatedWSMs 	1
scalar Scenario2.node[254].appl 	receivedWSMs 	1
scalar Scenario2.node[254].appl 	generatedBSMs 	50
scalar Scenario2.node[254].appl 	receivedBSMs 	937
scalar Scenario2.node[254].appl 	generatedWSAs 	0
scalar Scenario2.node[254].appl 	receivedWSAs 	0
scalar Scenario2.node[254].appl 	delayWSM 	24.805785680299
scalar Scenario2.node[254].appl 	Dist_Propa 	243.41950022591
scalar Scenario2.node[254].nic.phy80211p 	busyTime 	0.0195984
scalar Scenario2.node[254].nic.phy80211p 	ncollisions 	3
scalar Scenario2.node[254].nic.mac1609_4 	ReceivedUnicastPackets 	0
scalar Scenario2.node[254].nic.mac1609_4 	ReceivedBroadcasts 	938
scalar Scenario2.node[254].nic.mac1609_4 	SentPackets 	51
scalar Scenario2.node[254].nic.mac1609_4 	SNIRLostPackets 	3
scalar Scenario2.node[254].nic.mac1609_4 	RXTXLostPackets 	0
scalar Scenario2.node[254].nic.mac1609_4 	TotalLostPackets 	3
scalar Scenario2.node[254].nic.mac1609_4 	DroppedPacketsInMac 	0
scalar Scenario2.node[254].nic.mac1609_4 	TooLittleTime 	0
scalar Scenario2.node[254].nic.mac1609_4 	TimesIntoBackoff 	51
scalar Scenario2.node[254].nic.mac1609_4 	SlotsBackoff 	82
scalar Scenario2.node[254].nic.mac1609_4 	NumInternalContention 	0
scalar Scenario2.node[254].nic.mac1609_4 	totalBusyTime 	0.103475
scalar Scenario2.node[254].veinsmobility 	startTime 	55
scalar Scenario2.node[254].veinsmobility 	totalTime 	5
scalar Scenario2.node[254].veinsmobility 	stopTime 	60
scalar Scenario2.node[254].veinsmobility 	minSpeed 	4.1467374746261
scalar Scenario2.node[254].veinsmobility 	maxSpeed 	11.606694836134
scalar Scenario2.node[254].veinsmobility 	totalDistance 	34.638113438887
scalar Scenario2.node[254].veinsmobility 	totalCO2Emission 	22.250403430648
scalar Scenario2.node[255].appl 	generatedWSMs 	0
scalar Scenario2.node[255].appl 	receivedWSMs 	1
scalar Scenario2.node[255].appl 	generatedBSMs 	40
scalar Scenario2.node[255].appl 	receivedBSMs 	749
scalar Scenario2.node[255].appl 	generatedWSAs 	0
scalar Scenario2.node[255].appl 	receivedWSAs 	0
scalar Scenario2.node[255].appl 	delayWSM 	26.976566236485
scalar Scenario2.node[255].appl 	Dist_Propa 	240.25248055018
scalar Scenario2.node[255].nic.phy80211p 	busyTime 	0.019558
scalar Scenario2.node[255].nic.phy80211p 	ncollisions 	1
scalar Scenario2.node[255].nic.mac1609_4 	ReceivedUnicastPackets 	0
scalar Scenario2.node[255].nic.mac1609_4 	ReceivedBroadcasts 	750
scalar Scenario2.node[255].nic.mac1609_4 	SentPackets 	40
scalar Scenario2.node[255].nic.mac1609_4 	SNIRLostPackets 	1
scalar Scenario2.node[255].nic.mac1609_4 	RXTXLostPackets 	0
scalar Scenario2.node[255].nic.mac1609_4 	TotalLostPackets 	1
scalar Scenario2.node[255].nic.mac1609_4 	DroppedPacketsInMac 	0
scalar Scenario2.node[255].nic.mac1609_4 	TooLittleTime 	0
scalar Scenario2.node[255].nic.mac1609_4 	TimesIntoBackoff 	40
scalar Scenario2.node[255].nic.mac1609_4 	SlotsBackoff 	59
scalar Scenario2.node[255].nic.mac1609_4 	NumInternalContention 	0
scalar Scenario2.node[255].nic.mac1609_4 	totalBusyTime 	0.082432
scalar Scenario2.node[255].veinsmobility 	startTime 	56
scalar Scenario2.node[255].veinsmobility 	totalTime 	4
scalar Scenario2.node[255].veinsmobility 	stopTime 	60
scalar Scenario2.node[255].veinsmobility 	minSpeed 	2.4095380588329
scalar Scenario2.node[255].veinsmobility 	maxSpeed 	8.1382013312156
scalar Scenario2.node[255].veinsmobility 	totalDistance 	17.782100549166
scalar Scenario2.node[255].veinsmobility 	totalCO2Emission 	12.921392037435
scalar Scenario2.node[258].appl 	generatedWSMs 	0
scalar Scenario2.node[258].appl 	receivedWSMs 	0
scalar Scenario2.node[258].appl 	generatedBSMs 	20
scalar Scenario2.node[258].appl 	receivedBSMs 	350
scalar Scenario2.node[258].appl 	generatedWSAs 	0
scalar Scenario2.node[258].appl 	receivedWSAs 	0
scalar Scenario2.node[258].appl 	delayWSM 	-1
scalar Scenario2.node[258].appl 	Dist_Propa 	-1
scalar Scenario2.node[258].nic.phy80211p 	busyTime 	0.0182
scalar Scenario2.node[258].nic.phy80211p 	ncollisions 	0
scalar Scenario2.node[258].nic.mac1609_4 	ReceivedUnicastPackets 	0
scalar Scenario2.node[258].nic.mac1609_4 	ReceivedBroadcasts 	350
scalar Scenario2.node[258].nic.mac1609_4 	SentPackets 	20
scalar Scenario2.node[258].nic.mac1609_4 	SNIRLostPackets 	0
scalar Scenario2.node[258].nic.mac1609_4 	RXTXLostPackets 	0
scalar Scenario2.node[258].nic.mac1609_4 	TotalLostPackets 	0
scalar Scenario2.node[258].nic.mac1609_4 	DroppedPacketsInMac 	0
scalar Scenario2.node[258].nic.mac1609_4 	TooLittleTime 	0
scalar Scenario2.node[258].nic.mac1609_4 	TimesIntoBackoff 	20
scalar Scenario2.node[258].nic.mac1609_4 	SlotsBackoff 	32
scalar Scenario2.node[258].nic.mac1609_4 	NumInternalContention 	0
scalar Scenario2.node[258].nic.mac1609_4 	totalBusyTime 	0.0385
scalar Scenario2.node[258].veinsmobility 	startTime 	58
scalar Scenario2.node[258].veinsmobility 	totalTime 	2
scalar Scenario2.node[258].veinsmobility 	stopTime 	60
scalar Scenario2.node[258].veinsmobility 	minSpeed 	2.7294526099854
scalar Scenario2.node[258].veinsmobility 	maxSpeed 	4.5797816218155
scalar Scenario2.node[258].veinsmobility 	totalDistance 	5.6359190073888
scalar Scenario2.node[258].veinsmobility 	totalCO2Emission 	3.3820611870713
scalar Scenario2.node[130].appl 	generatedWSMs 	1
scalar Scenario2.node[130].appl 	receivedWSMs 	125
scalar Scenario2.node[130].appl 	generatedBSMs 	480
scalar Scenario2.node[130].appl 	receivedBSMs 	58795
scalar Scenario2.node[130].appl 	generatedWSAs 	0
scalar Scenario2.node[130].appl 	receivedWSAs 	0
scalar Scenario2.node[130].appl 	delayWSM 	2.012340799136
scalar Scenario2.node[130].appl 	Dist_Propa 	523.43621208719
scalar Scenario2.node[130].nic.phy80211p 	busyTime 	0.13632733333347
scalar Scenario2.node[130].nic.phy80211p 	ncollisions 	1936
scalar Scenario2.node[130].nic.mac1609_4 	ReceivedUnicastPackets 	0
scalar Scenario2.node[130].nic.mac1609_4 	ReceivedBroadcasts 	58920
scalar Scenario2.node[130].nic.mac1609_4 	SentPackets 	481
scalar Scenario2.node[130].nic.mac1609_4 	SNIRLostPackets 	3812
scalar Scenario2.node[130].nic.mac1609_4 	RXTXLostPackets 	31
scalar Scenario2.node[130].nic.mac1609_4 	TotalLostPackets 	3843
scalar Scenario2.node[130].nic.mac1609_4 	DroppedPacketsInMac 	0
scalar Scenario2.node[130].nic.mac1609_4 	TooLittleTime 	0
scalar Scenario2.node[130].nic.mac1609_4 	TimesIntoBackoff 	541
scalar Scenario2.node[130].nic.mac1609_4 	SlotsBackoff 	837
scalar Scenario2.node[130].nic.mac1609_4 	NumInternalContention 	0
scalar Scenario2.node[130].nic.mac1609_4 	totalBusyTime 	6.397705
scalar Scenario2.node[130].veinsmobility 	startTime 	12
scalar Scenario2.node[130].veinsmobility 	totalTime 	48
scalar Scenario2.node[130].veinsmobility 	stopTime 	60
scalar Scenario2.node[130].veinsmobility 	minSpeed 	3.257133028099
scalar Scenario2.node[130].veinsmobility 	maxSpeed 	18.999128500514
scalar Scenario2.node[130].veinsmobility 	totalDistance 	661.78815505913
scalar Scenario2.node[130].veinsmobility 	totalCO2Emission 	179.96048440599
scalar Scenario2.node[262].appl 	generatedWSMs 	0
scalar Scenario2.node[262].appl 	receivedWSMs 	0
scalar Scenario2.node[262].appl 	generatedBSMs 	0
scalar Scenario2.node[262].appl 	receivedBSMs 	0
scalar Scenario2.node[262].appl 	generatedWSAs 	0
scalar Scenario2.node[262].appl 	receivedWSAs 	0
scalar Scenario2.node[262].appl 	delayWSM 	-1
scalar Scenario2.node[262].appl 	Dist_Propa 	-1
scalar Scenario2.node[262].nic.phy80211p 	busyTime 	-nan
scalar Scenario2.node[262].nic.phy80211p 	ncollisions 	0
scalar Scenario2.node[262].nic.mac1609_4 	ReceivedUnicastPackets 	0
scalar Scenario2.node[262].nic.mac1609_4 	ReceivedBroadcasts 	0
scalar Scenario2.node[262].nic.mac1609_4 	SentPackets 	0
scalar Scenario2.node[262].nic.mac1609_4 	SNIRLostPackets 	0
scalar Scenario2.node[262].nic.mac1609_4 	RXTXLostPackets 	0
scalar Scenario2.node[262].nic.mac1609_4 	TotalLostPackets 	0
scalar Scenario2.node[262].nic.mac1609_4 	DroppedPacketsInMac 	0
scalar Scenario2.node[262].nic.mac1609_4 	TooLittleTime 	0
scalar Scenario2.node[262].nic.mac1609_4 	TimesIntoBackoff 	0
scalar Scenario2.node[262].nic.mac1609_4 	SlotsBackoff 	0
scalar Scenario2.node[262].nic.mac1609_4 	NumInternalContention 	0
scalar Scenario2.node[262].nic.mac1609_4 	totalBusyTime 	0
scalar Scenario2.node[262].veinsmobility 	startTime 	60
scalar Scenario2.node[262].veinsmobility 	totalTime 	0
scalar Scenario2.node[262].veinsmobility 	stopTime 	60
scalar Scenario2.node[262].veinsmobility 	totalDistance 	0
scalar Scenario2.node[262].veinsmobility 	totalCO2Emission 	0
scalar Scenario2.node[136].appl 	generatedWSMs 	1
scalar Scenario2.node[136].appl 	receivedWSMs 	119
scalar Scenario2.node[136].appl 	generatedBSMs 	460
scalar Scenario2.node[136].appl 	receivedBSMs 	56227
scalar Scenario2.node[136].appl 	generatedWSAs 	0
scalar Scenario2.node[136].appl 	receivedWSAs 	0
scalar Scenario2.node[136].appl 	delayWSM 	2.012340915564
scalar Scenario2.node[136].appl 	Dist_Propa 	557.43681979349
scalar Scenario2.node[136].nic.phy80211p 	busyTime 	0.13564121739143
scalar Scenario2.node[136].nic.phy80211p 	ncollisions 	1788
scalar Scenario2.node[136].nic.mac1609_4 	ReceivedUnicastPackets 	0
scalar Scenario2.node[136].nic.mac1609_4 	ReceivedBroadcasts 	56346
scalar Scenario2.node[136].nic.mac1609_4 	SentPackets 	461
scalar Scenario2.node[136].nic.mac1609_4 	SNIRLostPackets 	3467
scalar Scenario2.node[136].nic.mac1609_4 	RXTXLostPackets 	96
scalar Scenario2.node[136].nic.mac1609_4 	TotalLostPackets 	3563
scalar Scenario2.node[136].nic.mac1609_4 	DroppedPacketsInMac 	0
scalar Scenario2.node[136].nic.mac1609_4 	TooLittleTime 	0
scalar Scenario2.node[136].nic.mac1609_4 	TimesIntoBackoff 	601
scalar Scenario2.node[136].nic.mac1609_4 	SlotsBackoff 	936
scalar Scenario2.node[136].nic.mac1609_4 	NumInternalContention 	0
scalar Scenario2.node[136].nic.mac1609_4 	totalBusyTime 	6.112005589496
scalar Scenario2.node[136].veinsmobility 	startTime 	14
scalar Scenario2.node[136].veinsmobility 	totalTime 	46
scalar Scenario2.node[136].veinsmobility 	stopTime 	60
scalar Scenario2.node[136].veinsmobility 	minSpeed 	3.4777492481221
scalar Scenario2.node[136].veinsmobility 	maxSpeed 	18.986348388898
scalar Scenario2.node[136].veinsmobility 	totalDistance 	641.93276437025
scalar Scenario2.node[136].veinsmobility 	totalCO2Emission 	170.05792350486
scalar Scenario2.node[154].appl 	generatedWSMs 	1
scalar Scenario2.node[154].appl 	receivedWSMs 	109
scalar Scenario2.node[154].appl 	generatedBSMs 	440
scalar Scenario2.node[154].appl 	receivedBSMs 	53711
scalar Scenario2.node[154].appl 	generatedWSAs 	0
scalar Scenario2.node[154].appl 	receivedWSAs 	0
scalar Scenario2.node[154].appl 	delayWSM 	2.012341025536
scalar Scenario2.node[154].appl 	Dist_Propa 	593.69465416932
scalar Scenario2.node[154].nic.phy80211p 	busyTime 	0.13537345454556
scalar Scenario2.node[154].nic.phy80211p 	ncollisions 	1628
scalar Scenario2.node[154].nic.mac1609_4 	ReceivedUnicastPackets 	0
scalar Scenario2.node[154].nic.mac1609_4 	ReceivedBroadcasts 	53820
scalar Scenario2.node[154].nic.mac1609_4 	SentPackets 	441
scalar Scenario2.node[154].nic.mac1609_4 	SNIRLostPackets 	3286
scalar Scenario2.node[154].nic.mac1609_4 	RXTXLostPackets 	1
scalar Scenario2.node[154].nic.mac1609_4 	TotalLostPackets 	3287
scalar Scenario2.node[154].nic.mac1609_4 	DroppedPacketsInMac 	0
scalar Scenario2.node[154].nic.mac1609_4 	TooLittleTime 	0
scalar Scenario2.node[154].nic.mac1609_4 	TimesIntoBackoff 	441
scalar Scenario2.node[154].nic.mac1609_4 	SlotsBackoff 	655
scalar Scenario2.node[154].nic.mac1609_4 	NumInternalContention 	0
scalar Scenario2.node[154].nic.mac1609_4 	totalBusyTime 	5.82928173088
scalar Scenario2.node[154].veinsmobility 	startTime 	16
scalar Scenario2.node[154].veinsmobility 	totalTime 	44
scalar Scenario2.node[154].veinsmobility 	stopTime 	60
scalar Scenario2.node[154].veinsmobility 	minSpeed 	4.2176943966643
scalar Scenario2.node[154].veinsmobility 	maxSpeed 	18.990893175832
scalar Scenario2.node[154].veinsmobility 	totalDistance 	622.58382803624
scalar Scenario2.node[154].veinsmobility 	totalCO2Emission 	160.43838939463
scalar Scenario2.node[159].appl 	generatedWSMs 	1
scalar Scenario2.node[159].appl 	receivedWSMs 	97
scalar Scenario2.node[159].appl 	generatedBSMs 	430
scalar Scenario2.node[159].appl 	receivedBSMs 	51334
scalar Scenario2.node[159].appl 	generatedWSAs 	0
scalar Scenario2.node[159].appl 	receivedWSAs 	0
scalar Scenario2.node[159].appl 	delayWSM 	2.012341133784
scalar Scenario2.node[159].appl 	Dist_Propa 	526.32345145234
scalar Scenario2.node[159].nic.phy80211p 	busyTime 	0.13204223255823
scalar Scenario2.node[159].nic.phy80211p 	ncollisions 	1470
scalar Scenario2.node[159].nic.mac1609_4 	ReceivedUnicastPackets 	0
scalar Scenario2.node[159].nic.mac1609_4 	ReceivedBroadcasts 	51431
scalar Scenario2.node[159].nic.mac1609_4 	SentPackets 	431
scalar Scenario2.node[159].nic.mac1609_4 	SNIRLostPackets 	3012
scalar Scenario2.node[159].nic.mac1609_4 	RXTXLostPackets 	0
scalar Scenario2.node[159].nic.mac1609_4 	TotalLostPackets 	3012
scalar Scenario2.node[159].nic.mac1609_4 	DroppedPacketsInMac 	0
scalar Scenario2.node[159].nic.mac1609_4 	TooLittleTime 	0
scalar Scenario2.node[159].nic.mac1609_4 	TimesIntoBackoff 	432
scalar Scenario2.node[159].nic.mac1609_4 	SlotsBackoff 	675
scalar Scenario2.node[159].nic.mac1609_4 	NumInternalContention 	0
scalar Scenario2.node[159].nic.mac1609_4 	totalBusyTime 	5.561807079422
scalar Scenario2.node[159].veinsmobility 	startTime 	17
scalar Scenario2.node[159].veinsmobility 	totalTime 	43
scalar Scenario2.node[159].veinsmobility 	stopTime 	60
scalar Scenario2.node[159].veinsmobility 	minSpeed 	2.7087925310453
scalar Scenario2.node[159].veinsmobility 	maxSpeed 	18.998727781165
scalar Scenario2.node[159].veinsmobility 	totalDistance 	610.69359653895
scalar Scenario2.node[159].veinsmobility 	totalCO2Emission 	176.20026950234
scalar Scenario2.node[167].appl 	generatedWSMs 	1
scalar Scenario2.node[167].appl 	receivedWSMs 	89
scalar Scenario2.node[167].appl 	generatedBSMs 	410
scalar Scenario2.node[167].appl 	receivedBSMs 	48802
scalar Scenario2.node[167].appl 	generatedWSAs 	0
scalar Scenario2.node[167].appl 	receivedWSAs 	0
scalar Scenario2.node[167].appl 	delayWSM 	2.012341231332
scalar Scenario2.node[167].appl 	Dist_Propa 	654.95181476312
scalar Scenario2.node[167].nic.phy80211p 	busyTime 	0.13132448780495
scalar Scenario2.node[167].nic.phy80211p 	ncollisions 	1336
scalar Scenario2.node[167].nic.mac1609_4 	ReceivedUnicastPackets 	0
scalar Scenario2.node[167].nic.mac1609_4 	ReceivedBroadcasts 	48891
scalar Scenario2.node[167].nic.mac1609_4 	SentPackets 	411
scalar Scenario2.node[167].nic.mac1609_4 	SNIRLostPackets 	2747
scalar Scenario2.node[167].nic.mac1609_4 	RXTXLostPackets 	1
scalar Scenario2.node[167].nic.mac1609_4 	TotalLostPackets 	2748
scalar Scenario2.node[167].nic.mac1609_4 	DroppedPacketsInMac 	0
scalar Scenario2.node[167].nic.mac1609_4 	TooLittleTime 	0
scalar Scenario2.node[167].nic.mac1609_4 	TimesIntoBackoff 	411
scalar Scenario2.node[167].nic.mac1609_4 	SlotsBackoff 	625
scalar Scenario2.node[167].nic.mac1609_4 	NumInternalContention 	0
scalar Scenario2.node[167].nic.mac1609_4 	totalBusyTime 	5.280331197848
scalar Scenario2.node[167].veinsmobility 	startTime 	19
scalar Scenario2.node[167].veinsmobility 	totalTime 	41
scalar Scenario2.node[167].veinsmobility 	stopTime 	60
scalar Scenario2.node[167].veinsmobility 	minSpeed 	3.3557482195866
scalar Scenario2.node[167].veinsmobility 	maxSpeed 	18.999923923542
scalar Scenario2.node[167].veinsmobility 	totalDistance 	604.47872223042
scalar Scenario2.node[167].veinsmobility 	totalCO2Emission 	148.9181485535
scalar Scenario2.node[175].appl 	generatedWSMs 	1
scalar Scenario2.node[175].appl 	receivedWSMs 	71
scalar Scenario2.node[175].appl 	generatedBSMs 	390
scalar Scenario2.node[175].appl 	receivedBSMs 	45217
scalar Scenario2.node[175].appl 	generatedWSAs 	0
scalar Scenario2.node[175].appl 	receivedWSAs 	0
scalar Scenario2.node[175].appl 	delayWSM 	2.01234136904
scalar Scenario2.node[175].appl 	Dist_Propa 	694.64531285012
scalar Scenario2.node[175].nic.phy80211p 	busyTime 	0.1275220512821
scalar Scenario2.node[175].nic.phy80211p 	ncollisions 	1169
scalar Scenario2.node[175].nic.mac1609_4 	ReceivedUnicastPackets 	0
scalar Scenario2.node[175].nic.mac1609_4 	ReceivedBroadcasts 	45288
scalar Scenario2.node[175].nic.mac1609_4 	SentPackets 	391
scalar Scenario2.node[175].nic.mac1609_4 	SNIRLostPackets 	2422
scalar Scenario2.node[175].nic.mac1609_4 	RXTXLostPackets 	1
scalar Scenario2.node[175].nic.mac1609_4 	TotalLostPackets 	2423
scalar Scenario2.node[175].nic.mac1609_4 	DroppedPacketsInMac 	0
scalar Scenario2.node[175].nic.mac1609_4 	TooLittleTime 	0
scalar Scenario2.node[175].nic.mac1609_4 	TimesIntoBackoff 	391
scalar Scenario2.node[175].nic.mac1609_4 	SlotsBackoff 	621
scalar Scenario2.node[175].nic.mac1609_4 	NumInternalContention 	0
scalar Scenario2.node[175].nic.mac1609_4 	totalBusyTime 	4.883847019768
scalar Scenario2.node[175].veinsmobility 	startTime 	21
scalar Scenario2.node[175].veinsmobility 	totalTime 	39
scalar Scenario2.node[175].veinsmobility 	stopTime 	60
scalar Scenario2.node[175].veinsmobility 	minSpeed 	3.5815561515633
scalar Scenario2.node[175].veinsmobility 	maxSpeed 	18.991335381207
scalar Scenario2.node[175].veinsmobility 	totalDistance 	585.24651030782
scalar Scenario2.node[175].veinsmobility 	totalCO2Emission 	140.10945338174
scalar Scenario2.node[177].appl 	generatedWSMs 	1
scalar Scenario2.node[177].appl 	receivedWSMs 	58
scalar Scenario2.node[177].appl 	generatedBSMs 	380
scalar Scenario2.node[177].appl 	receivedBSMs 	42905
scalar Scenario2.node[177].appl 	generatedWSAs 	0
scalar Scenario2.node[177].appl 	receivedWSAs 	0
scalar Scenario2.node[177].appl 	delayWSM 	2.01234145734
scalar Scenario2.node[177].appl 	Dist_Propa 	722.07000449786
scalar Scenario2.node[177].nic.phy80211p 	busyTime 	0.12411136842108
scalar Scenario2.node[177].nic.phy80211p 	ncollisions 	1121
scalar Scenario2.node[177].nic.mac1609_4 	ReceivedUnicastPackets 	0
scalar Scenario2.node[177].nic.mac1609_4 	ReceivedBroadcasts 	42963
scalar Scenario2.node[177].nic.mac1609_4 	SentPackets 	381
scalar Scenario2.node[177].nic.mac1609_4 	SNIRLostPackets 	2298
scalar Scenario2.node[177].nic.mac1609_4 	RXTXLostPackets 	0
scalar Scenario2.node[177].nic.mac1609_4 	TotalLostPackets 	2298
scalar Scenario2.node[177].nic.mac1609_4 	DroppedPacketsInMac 	0
scalar Scenario2.node[177].nic.mac1609_4 	TooLittleTime 	0
scalar Scenario2.node[177].nic.mac1609_4 	TimesIntoBackoff 	381
scalar Scenario2.node[177].nic.mac1609_4 	SlotsBackoff 	543
scalar Scenario2.node[177].nic.mac1609_4 	NumInternalContention 	0
scalar Scenario2.node[177].nic.mac1609_4 	totalBusyTime 	4.633676408596
scalar Scenario2.node[177].veinsmobility 	startTime 	22
scalar Scenario2.node[177].veinsmobility 	totalTime 	38
scalar Scenario2.node[177].veinsmobility 	stopTime 	60
scalar Scenario2.node[177].veinsmobility 	minSpeed 	2.2529883940338
scalar Scenario2.node[177].veinsmobility 	maxSpeed 	18.999875641265
scalar Scenario2.node[177].veinsmobility 	totalDistance 	590.43950862395
scalar Scenario2.node[177].veinsmobility 	totalCO2Emission 	156.81212229586
