version 2
run WithoutChSw-WSA-TrAD-1-20180210-01:31:26-23641
attr configname WithoutChSw-WSA-TrAD
attr datetime 20180210-01:31:26
attr experiment WithoutChSw-WSA-TrAD
attr inifile omnetpp.ini
attr iterationvars $0=0.5s
attr iterationvarsf 0.5s-
attr measurement $0=0.5s
attr network Scenario2
attr processid 23641
attr repetition 0
attr replication #0
attr resultdir results
attr runnumber 1
attr seedset 1
param **.coreDebug false
param **.debug false
param *.**.nic.mac1609_4.bitrate 6Mbps
param *.**.nic.mac1609_4.txPower 20mW
param *.**.nic.mac1609_4.useServiceChannel false
param *.**.nic.phy80211p.analogueModels "xmldoc(\"config.xml\")"
param *.**.nic.phy80211p.antenna "xmldoc(\"antenna.xml\", \"/root/Antenna[@id='monopole']\")"
param *.**.nic.phy80211p.collectCollisionStatistics true
param *.**.nic.phy80211p.decider "xmldoc(\"config.xml\")"
param *.**.nic.phy80211p.sensitivity -89dBm
param *.**.nic.phy80211p.thermalNoise -110dBm
param *.**.nic.phy80211p.usePropagationDelay true
param *.**.nic.phy80211p.useThermalNoise true
param *.annotations.draw true
param *.connectionManager.drawMaxIntfDist false
param *.connectionManager.maxInterfDist 2600m
param *.connectionManager.sendDirect true
param *.manager.autoShutdown true
param *.manager.host "\"localhost\""
param *.manager.launchConfig "xmldoc(\"mycross.launchd.xml\")"
param *.manager.port 9999
param *.manager.updateInterval 1s
param *.node[*].appl.TrAD true
param *.node[*].appl.TrAD_Neig 25
param *.node[*].appl.TrAD_R 366
param *.node[*].appl.TrAD_alpha 10
param *.node[*].appl.TrAD_ti 0.005
param *.node[*].appl.beaconInterval 1s
param *.node[*].appl.dataOnSch false
param *.node[*].appl.headerLength "80 bit"
param *.node[*].appl.sendBeacons true
param *.node[*].appl.sendWSA true
param *.node[*].applType "\"myWaveAppLayer\""
param *.node[*].veinsmobility.x 0
param *.node[*].veinsmobility.y 0
param *.node[*].veinsmobility.z 1.895
param *.node[*].veinsmobilityType.debug true
param *.node[20].appl.Accident_start 30
param *.node[40].veinsmobility.accidentCount 1
param *.node[40].veinsmobility.accidentDuration 40s
param *.node[40].veinsmobility.accidentStart 30s
param *.obstacles.debug false
param *.playgroundSizeX 2500m
param *.playgroundSizeY 2500m
param *.playgroundSizeZ 50m
param *.rsu[*].appl.beaconInterval 0.1s
param *.rsu[*].appl.beaconUserPriority 7
param *.rsu[*].appl.dataOnSch false
param *.rsu[*].appl.dataUserPriority 5
param *.rsu[*].appl.headerLength "80 bit"
param *.rsu[*].appl.sendBeacons false
param *.rsu[*].applType "\"TraCIDemoRSU11p\""
param *.rsu[0].mobility.x 500
param *.rsu[0].mobility.y 500
param *.rsu[0].mobility.z 3

scalar Scenario2.node[18].appl 	generatedWSMs 	1
scalar Scenario2.node[18].appl 	receivedWSMs 	3
scalar Scenario2.node[18].appl 	generatedBSMs 	66
scalar Scenario2.node[18].appl 	receivedBSMs 	4823
scalar Scenario2.node[18].appl 	generatedWSAs 	0
scalar Scenario2.node[18].appl 	receivedWSAs 	0
scalar Scenario2.node[18].appl 	delayWSM 	0.030481860379
scalar Scenario2.node[18].appl 	Dist_Propa 	363.80944396051
scalar Scenario2.node[18].nic.phy80211p 	busyTime 	0.015322181818181
scalar Scenario2.node[18].nic.phy80211p 	ncollisions 	14
scalar Scenario2.node[18].nic.mac1609_4 	ReceivedUnicastPackets 	0
scalar Scenario2.node[18].nic.mac1609_4 	ReceivedBroadcasts 	4826
scalar Scenario2.node[18].nic.mac1609_4 	SentPackets 	67
scalar Scenario2.node[18].nic.mac1609_4 	SNIRLostPackets 	26
scalar Scenario2.node[18].nic.mac1609_4 	RXTXLostPackets 	21
scalar Scenario2.node[18].nic.mac1609_4 	TotalLostPackets 	47
scalar Scenario2.node[18].nic.mac1609_4 	DroppedPacketsInMac 	0
scalar Scenario2.node[18].nic.mac1609_4 	TooLittleTime 	0
scalar Scenario2.node[18].nic.mac1609_4 	TimesIntoBackoff 	67
scalar Scenario2.node[18].nic.mac1609_4 	SlotsBackoff 	108
scalar Scenario2.node[18].nic.mac1609_4 	NumInternalContention 	0
scalar Scenario2.node[18].nic.mac1609_4 	totalBusyTime 	0.511163000319
scalar Scenario2.node[18].veinsmobility 	startTime 	1
scalar Scenario2.node[18].veinsmobility 	totalTime 	32
scalar Scenario2.node[18].veinsmobility 	stopTime 	34
scalar Scenario2.node[18].veinsmobility 	minSpeed 	2.6377290236039
scalar Scenario2.node[18].veinsmobility 	maxSpeed 	18.998816868074
scalar Scenario2.node[18].veinsmobility 	totalDistance 	522.11524646103
scalar Scenario2.node[18].veinsmobility 	totalCO2Emission 	121.58310432878
scalar Scenario2.node[72].appl 	generatedWSMs 	0
scalar Scenario2.node[72].appl 	receivedWSMs 	0
scalar Scenario2.node[72].appl 	generatedBSMs 	64
scalar Scenario2.node[72].appl 	receivedBSMs 	4541
scalar Scenario2.node[72].appl 	generatedWSAs 	0
scalar Scenario2.node[72].appl 	receivedWSAs 	0
scalar Scenario2.node[72].appl 	delayWSM 	-1
scalar Scenario2.node[72].appl 	Dist_Propa 	-1
scalar Scenario2.node[72].nic.phy80211p 	busyTime 	0.014865499999999
scalar Scenario2.node[72].nic.phy80211p 	ncollisions 	22
scalar Scenario2.node[72].nic.mac1609_4 	ReceivedUnicastPackets 	0
scalar Scenario2.node[72].nic.mac1609_4 	ReceivedBroadcasts 	4541
scalar Scenario2.node[72].nic.mac1609_4 	SentPackets 	64
scalar Scenario2.node[72].nic.mac1609_4 	SNIRLostPackets 	33
scalar Scenario2.node[72].nic.mac1609_4 	RXTXLostPackets 	0
scalar Scenario2.node[72].nic.mac1609_4 	TotalLostPackets 	33
scalar Scenario2.node[72].nic.mac1609_4 	DroppedPacketsInMac 	0
scalar Scenario2.node[72].nic.mac1609_4 	TooLittleTime 	0
scalar Scenario2.node[72].nic.mac1609_4 	TimesIntoBackoff 	64
scalar Scenario2.node[72].nic.mac1609_4 	SlotsBackoff 	106
scalar Scenario2.node[72].nic.mac1609_4 	NumInternalContention 	0
scalar Scenario2.node[72].nic.mac1609_4 	totalBusyTime 	0.481272
scalar Scenario2.node[72].veinsmobility 	startTime 	3
scalar Scenario2.node[72].veinsmobility 	totalTime 	31
scalar Scenario2.node[72].veinsmobility 	stopTime 	35
scalar Scenario2.node[72].veinsmobility 	minSpeed 	4.160416336859
scalar Scenario2.node[72].veinsmobility 	maxSpeed 	18.998247401568
scalar Scenario2.node[72].veinsmobility 	totalDistance 	514.99453362875
scalar Scenario2.node[72].veinsmobility 	totalCO2Emission 	118.9178712817
scalar Scenario2.node[19].appl 	generatedWSMs 	1
scalar Scenario2.node[19].appl 	receivedWSMs 	3
scalar Scenario2.node[19].appl 	generatedBSMs 	70
scalar Scenario2.node[19].appl 	receivedBSMs 	5293
scalar Scenario2.node[19].appl 	generatedWSAs 	0
scalar Scenario2.node[19].appl 	receivedWSAs 	0
scalar Scenario2.node[19].appl 	delayWSM 	0.030481784568
scalar Scenario2.node[19].appl 	Dist_Propa 	385.81268218563
scalar Scenario2.node[19].nic.phy80211p 	busyTime 	0.015886171428571
scalar Scenario2.node[19].nic.phy80211p 	ncollisions 	19
scalar Scenario2.node[19].nic.mac1609_4 	ReceivedUnicastPackets 	0
scalar Scenario2.node[19].nic.mac1609_4 	ReceivedBroadcasts 	5296
scalar Scenario2.node[19].nic.mac1609_4 	SentPackets 	71
scalar Scenario2.node[19].nic.mac1609_4 	SNIRLostPackets 	38
scalar Scenario2.node[19].nic.mac1609_4 	RXTXLostPackets 	21
scalar Scenario2.node[19].nic.mac1609_4 	TotalLostPackets 	59
scalar Scenario2.node[19].nic.mac1609_4 	DroppedPacketsInMac 	0
scalar Scenario2.node[19].nic.mac1609_4 	TooLittleTime 	0
scalar Scenario2.node[19].nic.mac1609_4 	TimesIntoBackoff 	71
scalar Scenario2.node[19].nic.mac1609_4 	SlotsBackoff 	106
scalar Scenario2.node[19].nic.mac1609_4 	NumInternalContention 	0
scalar Scenario2.node[19].nic.mac1609_4 	totalBusyTime 	0.56098315163
scalar Scenario2.node[19].veinsmobility 	startTime 	1
scalar Scenario2.node[19].veinsmobility 	totalTime 	34
scalar Scenario2.node[19].veinsmobility 	stopTime 	36
scalar Scenario2.node[19].veinsmobility 	minSpeed 	2.7469869994252
scalar Scenario2.node[19].veinsmobility 	maxSpeed 	18.980967045685
scalar Scenario2.node[19].veinsmobility 	totalDistance 	552.79239116376
scalar Scenario2.node[19].veinsmobility 	totalCO2Emission 	125.79905284345
scalar Scenario2.node[81].appl 	generatedWSMs 	1
scalar Scenario2.node[81].appl 	receivedWSMs 	3
scalar Scenario2.node[81].appl 	generatedBSMs 	64
scalar Scenario2.node[81].appl 	receivedBSMs 	5027
scalar Scenario2.node[81].appl 	generatedWSAs 	0
scalar Scenario2.node[81].appl 	receivedWSAs 	0
scalar Scenario2.node[81].appl 	delayWSM 	0.030481764917
scalar Scenario2.node[81].appl 	Dist_Propa 	391.37829396905
scalar Scenario2.node[81].nic.phy80211p 	busyTime 	0.016537749999999
scalar Scenario2.node[81].nic.phy80211p 	ncollisions 	21
scalar Scenario2.node[81].nic.mac1609_4 	ReceivedUnicastPackets 	0
scalar Scenario2.node[81].nic.mac1609_4 	ReceivedBroadcasts 	5030
scalar Scenario2.node[81].nic.mac1609_4 	SentPackets 	65
scalar Scenario2.node[81].nic.mac1609_4 	SNIRLostPackets 	45
scalar Scenario2.node[81].nic.mac1609_4 	RXTXLostPackets 	21
scalar Scenario2.node[81].nic.mac1609_4 	TotalLostPackets 	66
scalar Scenario2.node[81].nic.mac1609_4 	DroppedPacketsInMac 	0
scalar Scenario2.node[81].nic.mac1609_4 	TooLittleTime 	0
scalar Scenario2.node[81].nic.mac1609_4 	TimesIntoBackoff 	65
scalar Scenario2.node[81].nic.mac1609_4 	SlotsBackoff 	102
scalar Scenario2.node[81].nic.mac1609_4 	NumInternalContention 	0
scalar Scenario2.node[81].nic.mac1609_4 	totalBusyTime 	0.532897042011
scalar Scenario2.node[81].veinsmobility 	startTime 	4
scalar Scenario2.node[81].veinsmobility 	totalTime 	31
scalar Scenario2.node[81].veinsmobility 	stopTime 	36
scalar Scenario2.node[81].veinsmobility 	minSpeed 	2.9169091988617
scalar Scenario2.node[81].veinsmobility 	maxSpeed 	18.976269957249
scalar Scenario2.node[81].veinsmobility 	totalDistance 	505.13364217523
scalar Scenario2.node[81].veinsmobility 	totalCO2Emission 	119.23000791163
scalar Scenario2.node[33].appl 	generatedWSMs 	1
scalar Scenario2.node[33].appl 	receivedWSMs 	3
scalar Scenario2.node[33].appl 	generatedBSMs 	72
scalar Scenario2.node[33].appl 	receivedBSMs 	5771
scalar Scenario2.node[33].appl 	generatedWSAs 	0
scalar Scenario2.node[33].appl 	receivedWSAs 	0
scalar Scenario2.node[33].appl 	delayWSM 	0.030481703254
scalar Scenario2.node[33].appl 	Dist_Propa 	411.7890201859
scalar Scenario2.node[33].nic.phy80211p 	busyTime 	0.016885555555555
scalar Scenario2.node[33].nic.phy80211p 	ncollisions 	25
scalar Scenario2.node[33].nic.mac1609_4 	ReceivedUnicastPackets 	0
scalar Scenario2.node[33].nic.mac1609_4 	ReceivedBroadcasts 	5774
scalar Scenario2.node[33].nic.mac1609_4 	SentPackets 	73
scalar Scenario2.node[33].nic.mac1609_4 	SNIRLostPackets 	55
scalar Scenario2.node[33].nic.mac1609_4 	RXTXLostPackets 	21
scalar Scenario2.node[33].nic.mac1609_4 	TotalLostPackets 	76
scalar Scenario2.node[33].nic.mac1609_4 	DroppedPacketsInMac 	0
scalar Scenario2.node[33].nic.mac1609_4 	TooLittleTime 	0
scalar Scenario2.node[33].nic.mac1609_4 	TimesIntoBackoff 	73
scalar Scenario2.node[33].nic.mac1609_4 	SlotsBackoff 	111
scalar Scenario2.node[33].nic.mac1609_4 	NumInternalContention 	0
scalar Scenario2.node[33].nic.mac1609_4 	totalBusyTime 	0.611529162636
scalar Scenario2.node[33].veinsmobility 	startTime 	1
scalar Scenario2.node[33].veinsmobility 	totalTime 	35
scalar Scenario2.node[33].veinsmobility 	stopTime 	37
scalar Scenario2.node[33].veinsmobility 	minSpeed 	0.7030855698499
scalar Scenario2.node[33].veinsmobility 	maxSpeed 	18.994416443501
scalar Scenario2.node[33].veinsmobility 	totalDistance 	543.99849859273
scalar Scenario2.node[33].veinsmobility 	totalCO2Emission 	128.19238520245
scalar Scenario2.node[24].appl 	generatedWSMs 	1
scalar Scenario2.node[24].appl 	receivedWSMs 	3
scalar Scenario2.node[24].appl 	generatedBSMs 	72
scalar Scenario2.node[24].appl 	receivedBSMs 	5783
scalar Scenario2.node[24].appl 	generatedWSAs 	0
scalar Scenario2.node[24].appl 	receivedWSAs 	0
scalar Scenario2.node[24].appl 	delayWSM 	0.03048168949
scalar Scenario2.node[24].appl 	Dist_Propa 	415.57417534994
scalar Scenario2.node[24].nic.phy80211p 	busyTime 	0.016920222222221
scalar Scenario2.node[24].nic.phy80211p 	ncollisions 	25
scalar Scenario2.node[24].nic.mac1609_4 	ReceivedUnicastPackets 	0
scalar Scenario2.node[24].nic.mac1609_4 	ReceivedBroadcasts 	5786
scalar Scenario2.node[24].nic.mac1609_4 	SentPackets 	73
scalar Scenario2.node[24].nic.mac1609_4 	SNIRLostPackets 	55
scalar Scenario2.node[24].nic.mac1609_4 	RXTXLostPackets 	21
scalar Scenario2.node[24].nic.mac1609_4 	TotalLostPackets 	76
scalar Scenario2.node[24].nic.mac1609_4 	DroppedPacketsInMac 	0
scalar Scenario2.node[24].nic.mac1609_4 	TooLittleTime 	0
scalar Scenario2.node[24].nic.mac1609_4 	TimesIntoBackoff 	73
scalar Scenario2.node[24].nic.mac1609_4 	SlotsBackoff 	122
scalar Scenario2.node[24].nic.mac1609_4 	NumInternalContention 	0
scalar Scenario2.node[24].nic.mac1609_4 	totalBusyTime 	0.612777150848
scalar Scenario2.node[24].veinsmobility 	startTime 	1
scalar Scenario2.node[24].veinsmobility 	totalTime 	35
scalar Scenario2.node[24].veinsmobility 	stopTime 	37
scalar Scenario2.node[24].veinsmobility 	minSpeed 	2.8351305318164
scalar Scenario2.node[24].veinsmobility 	maxSpeed 	18.986858689971
scalar Scenario2.node[24].veinsmobility 	totalDistance 	519.79892566372
scalar Scenario2.node[24].veinsmobility 	totalCO2Emission 	125.60350843403
scalar Scenario2.node[38].appl 	generatedWSMs 	1
scalar Scenario2.node[38].appl 	receivedWSMs 	3
scalar Scenario2.node[38].appl 	generatedBSMs 	74
scalar Scenario2.node[38].appl 	receivedBSMs 	6265
scalar Scenario2.node[38].appl 	generatedWSAs 	0
scalar Scenario2.node[38].appl 	receivedWSAs 	0
scalar Scenario2.node[38].appl 	delayWSM 	0.030481627743
scalar Scenario2.node[38].appl 	Dist_Propa 	433.72112551513
scalar Scenario2.node[38].nic.phy80211p 	busyTime 	0.017871567567567
scalar Scenario2.node[38].nic.phy80211p 	ncollisions 	29
scalar Scenario2.node[38].nic.mac1609_4 	ReceivedUnicastPackets 	0
scalar Scenario2.node[38].nic.mac1609_4 	ReceivedBroadcasts 	6268
scalar Scenario2.node[38].nic.mac1609_4 	SentPackets 	75
scalar Scenario2.node[38].nic.mac1609_4 	SNIRLostPackets 	68
scalar Scenario2.node[38].nic.mac1609_4 	RXTXLostPackets 	21
scalar Scenario2.node[38].nic.mac1609_4 	TotalLostPackets 	89
scalar Scenario2.node[38].nic.mac1609_4 	DroppedPacketsInMac 	0
scalar Scenario2.node[38].nic.mac1609_4 	TooLittleTime 	0
scalar Scenario2.node[38].nic.mac1609_4 	TimesIntoBackoff 	75
scalar Scenario2.node[38].nic.mac1609_4 	SlotsBackoff 	126
scalar Scenario2.node[38].nic.mac1609_4 	NumInternalContention 	0
scalar Scenario2.node[38].nic.mac1609_4 	totalBusyTime 	0.663531151032
scalar Scenario2.node[38].veinsmobility 	startTime 	1
scalar Scenario2.node[38].veinsmobility 	totalTime 	36
scalar Scenario2.node[38].veinsmobility 	stopTime 	38
scalar Scenario2.node[38].veinsmobility 	minSpeed 	3.8436146157379
scalar Scenario2.node[38].veinsmobility 	maxSpeed 	18.956129539851
scalar Scenario2.node[38].veinsmobility 	totalDistance 	572.52570590264
scalar Scenario2.node[38].veinsmobility 	totalCO2Emission 	127.13910885386
scalar Scenario2.node[77].appl 	generatedWSMs 	0
scalar Scenario2.node[77].appl 	receivedWSMs 	0
scalar Scenario2.node[77].appl 	generatedBSMs 	70
scalar Scenario2.node[77].appl 	receivedBSMs 	5714
scalar Scenario2.node[77].appl 	generatedWSAs 	0
scalar Scenario2.node[77].appl 	receivedWSAs 	0
scalar Scenario2.node[77].appl 	delayWSM 	-1
scalar Scenario2.node[77].appl 	Dist_Propa 	-1
scalar Scenario2.node[77].nic.phy80211p 	busyTime 	0.017177142857142
scalar Scenario2.node[77].nic.phy80211p 	ncollisions 	27
scalar Scenario2.node[77].nic.mac1609_4 	ReceivedUnicastPackets 	0
scalar Scenario2.node[77].nic.mac1609_4 	ReceivedBroadcasts 	5714
scalar Scenario2.node[77].nic.mac1609_4 	SentPackets 	70
scalar Scenario2.node[77].nic.mac1609_4 	SNIRLostPackets 	52
scalar Scenario2.node[77].nic.mac1609_4 	RXTXLostPackets 	0
scalar Scenario2.node[77].nic.mac1609_4 	TotalLostPackets 	52
scalar Scenario2.node[77].nic.mac1609_4 	DroppedPacketsInMac 	0
scalar Scenario2.node[77].nic.mac1609_4 	TooLittleTime 	0
scalar Scenario2.node[77].nic.mac1609_4 	TimesIntoBackoff 	70
scalar Scenario2.node[77].nic.mac1609_4 	SlotsBackoff 	103
scalar Scenario2.node[77].nic.mac1609_4 	NumInternalContention 	0
scalar Scenario2.node[77].nic.mac1609_4 	totalBusyTime 	0.604542
scalar Scenario2.node[77].veinsmobility 	startTime 	3
scalar Scenario2.node[77].veinsmobility 	totalTime 	34
scalar Scenario2.node[77].veinsmobility 	stopTime 	38
scalar Scenario2.node[77].veinsmobility 	minSpeed 	2.469303570089
scalar Scenario2.node[77].veinsmobility 	maxSpeed 	18.989598316788
scalar Scenario2.node[77].veinsmobility 	totalDistance 	534.6176752236
scalar Scenario2.node[77].veinsmobility 	totalCO2Emission 	125.29924590028
scalar Scenario2.node[78].appl 	generatedWSMs 	1
scalar Scenario2.node[78].appl 	receivedWSMs 	3
scalar Scenario2.node[78].appl 	generatedBSMs 	70
scalar Scenario2.node[78].appl 	receivedBSMs 	6016
scalar Scenario2.node[78].appl 	generatedWSAs 	0
scalar Scenario2.node[78].appl 	receivedWSAs 	0
scalar Scenario2.node[78].appl 	delayWSM 	0.030481614371
scalar Scenario2.node[78].appl 	Dist_Propa 	432.37853736458
scalar Scenario2.node[78].nic.phy80211p 	busyTime 	0.018182399999999
scalar Scenario2.node[78].nic.phy80211p 	ncollisions 	30
scalar Scenario2.node[78].nic.mac1609_4 	ReceivedUnicastPackets 	0
scalar Scenario2.node[78].nic.mac1609_4 	ReceivedBroadcasts 	6019
scalar Scenario2.node[78].nic.mac1609_4 	SentPackets 	71
scalar Scenario2.node[78].nic.mac1609_4 	SNIRLostPackets 	73
scalar Scenario2.node[78].nic.mac1609_4 	RXTXLostPackets 	21
scalar Scenario2.node[78].nic.mac1609_4 	TotalLostPackets 	94
scalar Scenario2.node[78].nic.mac1609_4 	DroppedPacketsInMac 	0
scalar Scenario2.node[78].nic.mac1609_4 	TooLittleTime 	0
scalar Scenario2.node[78].nic.mac1609_4 	TimesIntoBackoff 	71
scalar Scenario2.node[78].nic.mac1609_4 	SlotsBackoff 	113
scalar Scenario2.node[78].nic.mac1609_4 	NumInternalContention 	0
scalar Scenario2.node[78].nic.mac1609_4 	totalBusyTime 	0.637319178254
scalar Scenario2.node[78].veinsmobility 	startTime 	3
scalar Scenario2.node[78].veinsmobility 	totalTime 	34
scalar Scenario2.node[78].veinsmobility 	stopTime 	38
scalar Scenario2.node[78].veinsmobility 	minSpeed 	1.6589710813337
scalar Scenario2.node[78].veinsmobility 	maxSpeed 	18.915644339598
scalar Scenario2.node[78].veinsmobility 	totalDistance 	513.35441316521
scalar Scenario2.node[78].veinsmobility 	totalCO2Emission 	122.34261446111
scalar Scenario2.node[23].appl 	generatedWSMs 	0
scalar Scenario2.node[23].appl 	receivedWSMs 	0
scalar Scenario2.node[23].appl 	generatedBSMs 	76
scalar Scenario2.node[23].appl 	receivedBSMs 	6335
scalar Scenario2.node[23].appl 	generatedWSAs 	0
scalar Scenario2.node[23].appl 	receivedWSAs 	0
scalar Scenario2.node[23].appl 	delayWSM 	-1
scalar Scenario2.node[23].appl 	Dist_Propa 	-1
scalar Scenario2.node[23].nic.phy80211p 	busyTime 	0.017716210526315
scalar Scenario2.node[23].nic.phy80211p 	ncollisions 	31
scalar Scenario2.node[23].nic.mac1609_4 	ReceivedUnicastPackets 	0
scalar Scenario2.node[23].nic.mac1609_4 	ReceivedBroadcasts 	6335
scalar Scenario2.node[23].nic.mac1609_4 	SentPackets 	76
scalar Scenario2.node[23].nic.mac1609_4 	SNIRLostPackets 	89
scalar Scenario2.node[23].nic.mac1609_4 	RXTXLostPackets 	0
scalar Scenario2.node[23].nic.mac1609_4 	TotalLostPackets 	89
scalar Scenario2.node[23].nic.mac1609_4 	DroppedPacketsInMac 	0
scalar Scenario2.node[23].nic.mac1609_4 	TooLittleTime 	0
scalar Scenario2.node[23].nic.mac1609_4 	TimesIntoBackoff 	76
scalar Scenario2.node[23].nic.mac1609_4 	SlotsBackoff 	119
scalar Scenario2.node[23].nic.mac1609_4 	NumInternalContention 	0
scalar Scenario2.node[23].nic.mac1609_4 	totalBusyTime 	0.670172
scalar Scenario2.node[23].veinsmobility 	startTime 	1
scalar Scenario2.node[23].veinsmobility 	totalTime 	37
scalar Scenario2.node[23].veinsmobility 	stopTime 	39
scalar Scenario2.node[23].veinsmobility 	minSpeed 	3.9197721995389
scalar Scenario2.node[23].veinsmobility 	maxSpeed 	18.958762100481
scalar Scenario2.node[23].veinsmobility 	totalDistance 	551.2990211723
scalar Scenario2.node[23].veinsmobility 	totalCO2Emission 	129.27981560609
scalar Scenario2.node[99].appl 	generatedWSMs 	1
scalar Scenario2.node[99].appl 	receivedWSMs 	3
scalar Scenario2.node[99].appl 	generatedBSMs 	64
scalar Scenario2.node[99].appl 	receivedBSMs 	5876
scalar Scenario2.node[99].appl 	generatedWSAs 	0
scalar Scenario2.node[99].appl 	receivedWSAs 	0
scalar Scenario2.node[99].appl 	delayWSM 	0.030481538942
scalar Scenario2.node[99].appl 	Dist_Propa 	458.60788112449
scalar Scenario2.node[99].nic.phy80211p 	busyTime 	0.019582749999999
scalar Scenario2.node[99].nic.phy80211p 	ncollisions 	32
scalar Scenario2.node[99].nic.mac1609_4 	ReceivedUnicastPackets 	0
scalar Scenario2.node[99].nic.mac1609_4 	ReceivedBroadcasts 	5879
scalar Scenario2.node[99].nic.mac1609_4 	SentPackets 	65
scalar Scenario2.node[99].nic.mac1609_4 	SNIRLostPackets 	96
scalar Scenario2.node[99].nic.mac1609_4 	RXTXLostPackets 	21
scalar Scenario2.node[99].nic.mac1609_4 	TotalLostPackets 	117
scalar Scenario2.node[99].nic.mac1609_4 	DroppedPacketsInMac 	0
scalar Scenario2.node[99].nic.mac1609_4 	TooLittleTime 	0
scalar Scenario2.node[99].nic.mac1609_4 	TimesIntoBackoff 	65
scalar Scenario2.node[99].nic.mac1609_4 	SlotsBackoff 	95
scalar Scenario2.node[99].nic.mac1609_4 	NumInternalContention 	0
scalar Scenario2.node[99].nic.mac1609_4 	totalBusyTime 	0.622337178074
scalar Scenario2.node[99].veinsmobility 	startTime 	7
scalar Scenario2.node[99].veinsmobility 	totalTime 	31
scalar Scenario2.node[99].veinsmobility 	stopTime 	39
scalar Scenario2.node[99].veinsmobility 	minSpeed 	3.4495017279335
scalar Scenario2.node[99].veinsmobility 	maxSpeed 	18.97233216234
scalar Scenario2.node[99].veinsmobility 	totalDistance 	505.89978518668
scalar Scenario2.node[99].veinsmobility 	totalCO2Emission 	118.34030555927
scalar Scenario2.node[43].appl 	generatedWSMs 	1
scalar Scenario2.node[43].appl 	receivedWSMs 	3
scalar Scenario2.node[43].appl 	generatedBSMs 	78
scalar Scenario2.node[43].appl 	receivedBSMs 	7013
scalar Scenario2.node[43].appl 	generatedWSAs 	0
scalar Scenario2.node[43].appl 	receivedWSAs 	0
scalar Scenario2.node[43].appl 	delayWSM 	0.030481483122
scalar Scenario2.node[43].appl 	Dist_Propa 	254.96121401361
scalar Scenario2.node[43].nic.phy80211p 	busyTime 	0.01919405128205
scalar Scenario2.node[43].nic.phy80211p 	ncollisions 	38
scalar Scenario2.node[43].nic.mac1609_4 	ReceivedUnicastPackets 	0
scalar Scenario2.node[43].nic.mac1609_4 	ReceivedBroadcasts 	7016
scalar Scenario2.node[43].nic.mac1609_4 	SentPackets 	79
scalar Scenario2.node[43].nic.mac1609_4 	SNIRLostPackets 	119
scalar Scenario2.node[43].nic.mac1609_4 	RXTXLostPackets 	21
scalar Scenario2.node[43].nic.mac1609_4 	TotalLostPackets 	140
scalar Scenario2.node[43].nic.mac1609_4 	DroppedPacketsInMac 	0
scalar Scenario2.node[43].nic.mac1609_4 	TooLittleTime 	0
scalar Scenario2.node[43].nic.mac1609_4 	TimesIntoBackoff 	79
scalar Scenario2.node[43].nic.mac1609_4 	SlotsBackoff 	108
scalar Scenario2.node[43].nic.mac1609_4 	NumInternalContention 	0
scalar Scenario2.node[43].nic.mac1609_4 	totalBusyTime 	0.742679263182
scalar Scenario2.node[43].veinsmobility 	startTime 	1
scalar Scenario2.node[43].veinsmobility 	totalTime 	38
scalar Scenario2.node[43].veinsmobility 	stopTime 	40
scalar Scenario2.node[43].veinsmobility 	minSpeed 	0.93985029414634
scalar Scenario2.node[43].veinsmobility 	maxSpeed 	18.998235099297
scalar Scenario2.node[43].veinsmobility 	totalDistance 	533.08445200913
scalar Scenario2.node[43].veinsmobility 	totalCO2Emission 	131.64580719256
scalar Scenario2.node[97].appl 	generatedWSMs 	1
scalar Scenario2.node[97].appl 	receivedWSMs 	5
scalar Scenario2.node[97].appl 	generatedBSMs 	68
scalar Scenario2.node[97].appl 	receivedBSMs 	6863
scalar Scenario2.node[97].appl 	generatedWSAs 	0
scalar Scenario2.node[97].appl 	receivedWSAs 	0
scalar Scenario2.node[97].appl 	delayWSM 	0.04571851802
scalar Scenario2.node[97].appl 	Dist_Propa 	718.16156697289
scalar Scenario2.node[97].nic.phy80211p 	busyTime 	0.02172494117647
scalar Scenario2.node[97].nic.phy80211p 	ncollisions 	47
scalar Scenario2.node[97].nic.mac1609_4 	ReceivedUnicastPackets 	0
scalar Scenario2.node[97].nic.mac1609_4 	ReceivedBroadcasts 	6868
scalar Scenario2.node[97].nic.mac1609_4 	SentPackets 	69
scalar Scenario2.node[97].nic.mac1609_4 	SNIRLostPackets 	147
scalar Scenario2.node[97].nic.mac1609_4 	RXTXLostPackets 	5
scalar Scenario2.node[97].nic.mac1609_4 	TotalLostPackets 	152
scalar Scenario2.node[97].nic.mac1609_4 	DroppedPacketsInMac 	0
scalar Scenario2.node[97].nic.mac1609_4 	TooLittleTime 	0
scalar Scenario2.node[97].nic.mac1609_4 	TimesIntoBackoff 	69
scalar Scenario2.node[97].nic.mac1609_4 	SlotsBackoff 	107
scalar Scenario2.node[97].nic.mac1609_4 	NumInternalContention 	0
scalar Scenario2.node[97].nic.mac1609_4 	totalBusyTime 	0.727685034852
scalar Scenario2.node[97].veinsmobility 	startTime 	6
scalar Scenario2.node[97].veinsmobility 	totalTime 	33
scalar Scenario2.node[97].veinsmobility 	stopTime 	40
scalar Scenario2.node[97].veinsmobility 	minSpeed 	2.0811592944059
scalar Scenario2.node[97].veinsmobility 	maxSpeed 	18.985642932095
scalar Scenario2.node[97].veinsmobility 	totalDistance 	537.06051774556
scalar Scenario2.node[97].veinsmobility 	totalCO2Emission 	124.01651426989
scalar Scenario2.node[87].appl 	generatedWSMs 	1
scalar Scenario2.node[87].appl 	receivedWSMs 	3
scalar Scenario2.node[87].appl 	generatedBSMs 	72
scalar Scenario2.node[87].appl 	receivedBSMs 	6739
scalar Scenario2.node[87].appl 	generatedWSAs 	0
scalar Scenario2.node[87].appl 	receivedWSAs 	0
scalar Scenario2.node[87].appl 	delayWSM 	0.030481456934
scalar Scenario2.node[87].appl 	Dist_Propa 	193.82585942691
scalar Scenario2.node[87].nic.phy80211p 	busyTime 	0.020032888888888
scalar Scenario2.node[87].nic.phy80211p 	ncollisions 	40
scalar Scenario2.node[87].nic.mac1609_4 	ReceivedUnicastPackets 	0
scalar Scenario2.node[87].nic.mac1609_4 	ReceivedBroadcasts 	6742
scalar Scenario2.node[87].nic.mac1609_4 	SentPackets 	73
scalar Scenario2.node[87].nic.mac1609_4 	SNIRLostPackets 	126
scalar Scenario2.node[87].nic.mac1609_4 	RXTXLostPackets 	21
scalar Scenario2.node[87].nic.mac1609_4 	TotalLostPackets 	147
scalar Scenario2.node[87].nic.mac1609_4 	DroppedPacketsInMac 	0
scalar Scenario2.node[87].nic.mac1609_4 	TooLittleTime 	0
scalar Scenario2.node[87].nic.mac1609_4 	TimesIntoBackoff 	73
scalar Scenario2.node[87].nic.mac1609_4 	SlotsBackoff 	111
scalar Scenario2.node[87].nic.mac1609_4 	NumInternalContention 	0
scalar Scenario2.node[87].nic.mac1609_4 	totalBusyTime 	0.713761164006
scalar Scenario2.node[87].veinsmobility 	startTime 	5
scalar Scenario2.node[87].veinsmobility 	totalTime 	35
scalar Scenario2.node[87].veinsmobility 	stopTime 	41
scalar Scenario2.node[87].veinsmobility 	minSpeed 	1.5977305046032
scalar Scenario2.node[87].veinsmobility 	maxSpeed 	18.996921987447
scalar Scenario2.node[87].veinsmobility 	totalDistance 	533.65184389026
scalar Scenario2.node[87].veinsmobility 	totalCO2Emission 	127.08622532585
scalar Scenario2.node[65].appl 	generatedWSMs 	1
scalar Scenario2.node[65].appl 	receivedWSMs 	3
scalar Scenario2.node[65].appl 	generatedBSMs 	78
scalar Scenario2.node[65].appl 	receivedBSMs 	7373
scalar Scenario2.node[65].appl 	generatedWSAs 	0
scalar Scenario2.node[65].appl 	receivedWSAs 	0
scalar Scenario2.node[65].appl 	delayWSM 	0.030481408306
scalar Scenario2.node[65].appl 	Dist_Propa 	204.98804316947
scalar Scenario2.node[65].nic.phy80211p 	busyTime 	0.020230153846153
scalar Scenario2.node[65].nic.phy80211p 	ncollisions 	38
scalar Scenario2.node[65].nic.mac1609_4 	ReceivedUnicastPackets 	0
scalar Scenario2.node[65].nic.mac1609_4 	ReceivedBroadcasts 	7376
scalar Scenario2.node[65].nic.mac1609_4 	SentPackets 	79
scalar Scenario2.node[65].nic.mac1609_4 	SNIRLostPackets 	134
scalar Scenario2.node[65].nic.mac1609_4 	RXTXLostPackets 	21
scalar Scenario2.node[65].nic.mac1609_4 	TotalLostPackets 	155
scalar Scenario2.node[65].nic.mac1609_4 	DroppedPacketsInMac 	0
scalar Scenario2.node[65].nic.mac1609_4 	TooLittleTime 	0
scalar Scenario2.node[65].nic.mac1609_4 	TimesIntoBackoff 	79
scalar Scenario2.node[65].nic.mac1609_4 	SlotsBackoff 	114
scalar Scenario2.node[65].nic.mac1609_4 	NumInternalContention 	0
scalar Scenario2.node[65].nic.mac1609_4 	totalBusyTime 	0.780119261983
scalar Scenario2.node[65].veinsmobility 	startTime 	2
scalar Scenario2.node[65].veinsmobility 	totalTime 	38
scalar Scenario2.node[65].veinsmobility 	stopTime 	41
scalar Scenario2.node[65].veinsmobility 	minSpeed 	2.7004654792201
scalar Scenario2.node[65].veinsmobility 	maxSpeed 	18.952788990605
scalar Scenario2.node[65].veinsmobility 	totalDistance 	542.46622928497
scalar Scenario2.node[65].veinsmobility 	totalCO2Emission 	129.04066945565
scalar Scenario2.node[86].appl 	generatedWSMs 	1
scalar Scenario2.node[86].appl 	receivedWSMs 	8
scalar Scenario2.node[86].appl 	generatedBSMs 	72
scalar Scenario2.node[86].appl 	receivedBSMs 	7442
scalar Scenario2.node[86].appl 	generatedWSAs 	0
scalar Scenario2.node[86].appl 	receivedWSAs 	0
scalar Scenario2.node[86].appl 	delayWSM 	0.030481783542
scalar Scenario2.node[86].appl 	Dist_Propa 	757.60947122756
scalar Scenario2.node[86].nic.phy80211p 	busyTime 	0.022295999999999
scalar Scenario2.node[86].nic.phy80211p 	ncollisions 	51
scalar Scenario2.node[86].nic.mac1609_4 	ReceivedUnicastPackets 	0
scalar Scenario2.node[86].nic.mac1609_4 	ReceivedBroadcasts 	7450
scalar Scenario2.node[86].nic.mac1609_4 	SentPackets 	73
scalar Scenario2.node[86].nic.mac1609_4 	SNIRLostPackets 	162
scalar Scenario2.node[86].nic.mac1609_4 	RXTXLostPackets 	1
scalar Scenario2.node[86].nic.mac1609_4 	TotalLostPackets 	163
scalar Scenario2.node[86].nic.mac1609_4 	DroppedPacketsInMac 	0
scalar Scenario2.node[86].nic.mac1609_4 	TooLittleTime 	0
scalar Scenario2.node[86].nic.mac1609_4 	TimesIntoBackoff 	73
scalar Scenario2.node[86].nic.mac1609_4 	SlotsBackoff 	111
scalar Scenario2.node[86].nic.mac1609_4 	NumInternalContention 	0
scalar Scenario2.node[86].nic.mac1609_4 	totalBusyTime 	0.789305031409
scalar Scenario2.node[86].veinsmobility 	startTime 	5
scalar Scenario2.node[86].veinsmobility 	totalTime 	35
scalar Scenario2.node[86].veinsmobility 	stopTime 	41
scalar Scenario2.node[86].veinsmobility 	minSpeed 	2.8531540664863
scalar Scenario2.node[86].veinsmobility 	maxSpeed 	18.998548358157
scalar Scenario2.node[86].veinsmobility 	totalDistance 	576.58382063838
scalar Scenario2.node[86].veinsmobility 	totalCO2Emission 	128.79870530879
scalar Scenario2.node[69].appl 	generatedWSMs 	1
scalar Scenario2.node[69].appl 	receivedWSMs 	3
scalar Scenario2.node[69].appl 	generatedBSMs 	80
scalar Scenario2.node[69].appl 	receivedBSMs 	7563
scalar Scenario2.node[69].appl 	generatedWSAs 	0
scalar Scenario2.node[69].appl 	receivedWSAs 	0
scalar Scenario2.node[69].appl 	delayWSM 	0.030481382227
scalar Scenario2.node[69].appl 	Dist_Propa 	214.92539869085
scalar Scenario2.node[69].nic.phy80211p 	busyTime 	0.020257799999999
scalar Scenario2.node[69].nic.phy80211p 	ncollisions 	40
scalar Scenario2.node[69].nic.mac1609_4 	ReceivedUnicastPackets 	0
scalar Scenario2.node[69].nic.mac1609_4 	ReceivedBroadcasts 	7566
scalar Scenario2.node[69].nic.mac1609_4 	SentPackets 	81
scalar Scenario2.node[69].nic.mac1609_4 	SNIRLostPackets 	143
scalar Scenario2.node[69].nic.mac1609_4 	RXTXLostPackets 	21
scalar Scenario2.node[69].nic.mac1609_4 	TotalLostPackets 	164
scalar Scenario2.node[69].nic.mac1609_4 	DroppedPacketsInMac 	0
scalar Scenario2.node[69].nic.mac1609_4 	TooLittleTime 	0
scalar Scenario2.node[69].nic.mac1609_4 	TimesIntoBackoff 	81
scalar Scenario2.node[69].nic.mac1609_4 	SlotsBackoff 	109
scalar Scenario2.node[69].nic.mac1609_4 	NumInternalContention 	0
scalar Scenario2.node[69].nic.mac1609_4 	totalBusyTime 	0.800297202139
scalar Scenario2.node[69].veinsmobility 	startTime 	2
scalar Scenario2.node[69].veinsmobility 	totalTime 	39
scalar Scenario2.node[69].veinsmobility 	stopTime 	42
scalar Scenario2.node[69].veinsmobility 	minSpeed 	1.8372399861668
scalar Scenario2.node[69].veinsmobility 	maxSpeed 	18.994541057395
scalar Scenario2.node[69].veinsmobility 	totalDistance 	557.44137128233
scalar Scenario2.node[69].veinsmobility 	totalCO2Emission 	133.33762905362
scalar Scenario2.node[2].appl 	generatedWSMs 	1
scalar Scenario2.node[2].appl 	receivedWSMs 	3
scalar Scenario2.node[2].appl 	generatedBSMs 	84
scalar Scenario2.node[2].appl 	receivedBSMs 	7953
scalar Scenario2.node[2].appl 	generatedWSAs 	0
scalar Scenario2.node[2].appl 	receivedWSAs 	0
scalar Scenario2.node[2].appl 	delayWSM 	0.030481334316
scalar Scenario2.node[2].appl 	Dist_Propa 	223.41435716242
scalar Scenario2.node[2].nic.phy80211p 	busyTime 	0.020307999999999
scalar Scenario2.node[2].nic.phy80211p 	ncollisions 	40
scalar Scenario2.node[2].nic.mac1609_4 	ReceivedUnicastPackets 	0
scalar Scenario2.node[2].nic.mac1609_4 	ReceivedBroadcasts 	7956
scalar Scenario2.node[2].nic.mac1609_4 	SentPackets 	85
scalar Scenario2.node[2].nic.mac1609_4 	SNIRLostPackets 	153
scalar Scenario2.node[2].nic.mac1609_4 	RXTXLostPackets 	21
scalar Scenario2.node[2].nic.mac1609_4 	TotalLostPackets 	174
scalar Scenario2.node[2].nic.mac1609_4 	DroppedPacketsInMac 	0
scalar Scenario2.node[2].nic.mac1609_4 	TooLittleTime 	0
scalar Scenario2.node[2].nic.mac1609_4 	TimesIntoBackoff 	85
scalar Scenario2.node[2].nic.mac1609_4 	SlotsBackoff 	135
scalar Scenario2.node[2].nic.mac1609_4 	NumInternalContention 	0
scalar Scenario2.node[2].nic.mac1609_4 	totalBusyTime 	0.841277246005
scalar Scenario2.node[2].veinsmobility 	startTime 	1
scalar Scenario2.node[2].veinsmobility 	totalTime 	41
scalar Scenario2.node[2].veinsmobility 	stopTime 	43
scalar Scenario2.node[2].veinsmobility 	minSpeed 	3.897912896338
scalar Scenario2.node[2].veinsmobility 	maxSpeed 	18.952529372755
scalar Scenario2.node[2].veinsmobility 	totalDistance 	587.77899406994
scalar Scenario2.node[2].veinsmobility 	totalCO2Emission 	134.19222120583
scalar Scenario2.node[100].appl 	generatedWSMs 	1
scalar Scenario2.node[100].appl 	receivedWSMs 	3
scalar Scenario2.node[100].appl 	generatedBSMs 	72
scalar Scenario2.node[100].appl 	receivedBSMs 	7245
scalar Scenario2.node[100].appl 	generatedWSAs 	0
scalar Scenario2.node[100].appl 	receivedWSAs 	0
scalar Scenario2.node[100].appl 	delayWSM 	0.030481307709
scalar Scenario2.node[100].appl 	Dist_Propa 	234.88827410744
scalar Scenario2.node[100].nic.phy80211p 	busyTime 	0.021660888888888
scalar Scenario2.node[100].nic.phy80211p 	ncollisions 	38
scalar Scenario2.node[100].nic.mac1609_4 	ReceivedUnicastPackets 	0
scalar Scenario2.node[100].nic.mac1609_4 	ReceivedBroadcasts 	7248
scalar Scenario2.node[100].nic.mac1609_4 	SentPackets 	73
scalar Scenario2.node[100].nic.mac1609_4 	SNIRLostPackets 	154
scalar Scenario2.node[100].nic.mac1609_4 	RXTXLostPackets 	21
scalar Scenario2.node[100].nic.mac1609_4 	TotalLostPackets 	175
scalar Scenario2.node[100].nic.mac1609_4 	DroppedPacketsInMac 	0
scalar Scenario2.node[100].nic.mac1609_4 	TooLittleTime 	0
scalar Scenario2.node[100].nic.mac1609_4 	TimesIntoBackoff 	73
scalar Scenario2.node[100].nic.mac1609_4 	SlotsBackoff 	119
scalar Scenario2.node[100].nic.mac1609_4 	NumInternalContention 	0
scalar Scenario2.node[100].nic.mac1609_4 	totalBusyTime 	0.766177298426
scalar Scenario2.node[100].veinsmobility 	startTime 	7
scalar Scenario2.node[100].veinsmobility 	totalTime 	35
scalar Scenario2.node[100].veinsmobility 	stopTime 	43
scalar Scenario2.node[100].veinsmobility 	minSpeed 	3.7401869103686
scalar Scenario2.node[100].veinsmobility 	maxSpeed 	18.953406393947
scalar Scenario2.node[100].veinsmobility 	totalDistance 	554.61934619149
scalar Scenario2.node[100].veinsmobility 	totalCO2Emission 	124.93218523496
scalar Scenario2.node[75].appl 	generatedWSMs 	1
scalar Scenario2.node[75].appl 	receivedWSMs 	3
scalar Scenario2.node[75].appl 	generatedBSMs 	82
scalar Scenario2.node[75].appl 	receivedBSMs 	8139
scalar Scenario2.node[75].appl 	generatedWSAs 	0
scalar Scenario2.node[75].appl 	receivedWSAs 	0
scalar Scenario2.node[75].appl 	delayWSM 	0.030481261217
scalar Scenario2.node[75].appl 	Dist_Propa 	241.64186394795
scalar Scenario2.node[75].nic.phy80211p 	busyTime 	0.021337365853657
scalar Scenario2.node[75].nic.phy80211p 	ncollisions 	38
scalar Scenario2.node[75].nic.mac1609_4 	ReceivedUnicastPackets 	0
scalar Scenario2.node[75].nic.mac1609_4 	ReceivedBroadcasts 	8142
scalar Scenario2.node[75].nic.mac1609_4 	SentPackets 	83
scalar Scenario2.node[75].nic.mac1609_4 	SNIRLostPackets 	164
scalar Scenario2.node[75].nic.mac1609_4 	RXTXLostPackets 	21
scalar Scenario2.node[75].nic.mac1609_4 	TotalLostPackets 	185
scalar Scenario2.node[75].nic.mac1609_4 	DroppedPacketsInMac 	0
scalar Scenario2.node[75].nic.mac1609_4 	TooLittleTime 	0
scalar Scenario2.node[75].nic.mac1609_4 	TimesIntoBackoff 	83
scalar Scenario2.node[75].nic.mac1609_4 	SlotsBackoff 	108
scalar Scenario2.node[75].nic.mac1609_4 	NumInternalContention 	0
scalar Scenario2.node[75].nic.mac1609_4 	totalBusyTime 	0.86020329422
scalar Scenario2.node[75].veinsmobility 	startTime 	3
scalar Scenario2.node[75].veinsmobility 	totalTime 	40
scalar Scenario2.node[75].veinsmobility 	stopTime 	44
scalar Scenario2.node[75].veinsmobility 	minSpeed 	3.7663311277212
scalar Scenario2.node[75].veinsmobility 	maxSpeed 	18.953042766952
scalar Scenario2.node[75].veinsmobility 	totalDistance 	592.6119070957
scalar Scenario2.node[75].veinsmobility 	totalCO2Emission 	136.32523109303
scalar Scenario2.node[102].appl 	generatedWSMs 	1
scalar Scenario2.node[102].appl 	receivedWSMs 	3
scalar Scenario2.node[102].appl 	generatedBSMs 	74
scalar Scenario2.node[102].appl 	receivedBSMs 	7705
scalar Scenario2.node[102].appl 	generatedWSAs 	0
scalar Scenario2.node[102].appl 	receivedWSAs 	0
scalar Scenario2.node[102].appl 	delayWSM 	0.030481230884
scalar Scenario2.node[102].appl 	Dist_Propa 	261.08919457266
scalar Scenario2.node[102].nic.phy80211p 	busyTime 	0.022437405405404
scalar Scenario2.node[102].nic.phy80211p 	ncollisions 	36
scalar Scenario2.node[102].nic.mac1609_4 	ReceivedUnicastPackets 	0
scalar Scenario2.node[102].nic.mac1609_4 	ReceivedBroadcasts 	7708
scalar Scenario2.node[102].nic.mac1609_4 	SentPackets 	75
scalar Scenario2.node[102].nic.mac1609_4 	SNIRLostPackets 	165
scalar Scenario2.node[102].nic.mac1609_4 	RXTXLostPackets 	21
scalar Scenario2.node[102].nic.mac1609_4 	TotalLostPackets 	186
scalar Scenario2.node[102].nic.mac1609_4 	DroppedPacketsInMac 	0
scalar Scenario2.node[102].nic.mac1609_4 	TooLittleTime 	0
scalar Scenario2.node[102].nic.mac1609_4 	TimesIntoBackoff 	75
scalar Scenario2.node[102].nic.mac1609_4 	SlotsBackoff 	109
scalar Scenario2.node[102].nic.mac1609_4 	NumInternalContention 	0
scalar Scenario2.node[102].nic.mac1609_4 	totalBusyTime 	0.81401930265
scalar Scenario2.node[102].veinsmobility 	startTime 	7
scalar Scenario2.node[102].veinsmobility 	totalTime 	36
scalar Scenario2.node[102].veinsmobility 	stopTime 	44
scalar Scenario2.node[102].veinsmobility 	minSpeed 	2.9899711694765
scalar Scenario2.node[102].veinsmobility 	maxSpeed 	18.986820058792
scalar Scenario2.node[102].veinsmobility 	totalDistance 	561.05710037719
scalar Scenario2.node[102].veinsmobility 	totalCO2Emission 	128.11329495202
scalar Scenario2.node[10].appl 	generatedWSMs 	1
scalar Scenario2.node[10].appl 	receivedWSMs 	4
scalar Scenario2.node[10].appl 	generatedBSMs 	88
scalar Scenario2.node[10].appl 	receivedBSMs 	8790
scalar Scenario2.node[10].appl 	generatedWSAs 	0
scalar Scenario2.node[10].appl 	receivedWSAs 	0
scalar Scenario2.node[10].appl 	delayWSM 	0.030481188788
scalar Scenario2.node[10].appl 	Dist_Propa 	260.74572222794
scalar Scenario2.node[10].nic.phy80211p 	busyTime 	0.021480545454544
scalar Scenario2.node[10].nic.phy80211p 	ncollisions 	38
scalar Scenario2.node[10].nic.mac1609_4 	ReceivedUnicastPackets 	0
scalar Scenario2.node[10].nic.mac1609_4 	ReceivedBroadcasts 	8794
scalar Scenario2.node[10].nic.mac1609_4 	SentPackets 	89
scalar Scenario2.node[10].nic.mac1609_4 	SNIRLostPackets 	177
scalar Scenario2.node[10].nic.mac1609_4 	RXTXLostPackets 	25
scalar Scenario2.node[10].nic.mac1609_4 	TotalLostPackets 	202
scalar Scenario2.node[10].nic.mac1609_4 	DroppedPacketsInMac 	0
scalar Scenario2.node[10].nic.mac1609_4 	TooLittleTime 	0
scalar Scenario2.node[10].nic.mac1609_4 	TimesIntoBackoff 	89
scalar Scenario2.node[10].nic.mac1609_4 	SlotsBackoff 	122
scalar Scenario2.node[10].nic.mac1609_4 	NumInternalContention 	0
scalar Scenario2.node[10].nic.mac1609_4 	totalBusyTime 	0.92876929111
scalar Scenario2.node[10].veinsmobility 	startTime 	1
scalar Scenario2.node[10].veinsmobility 	totalTime 	43
scalar Scenario2.node[10].veinsmobility 	stopTime 	45
scalar Scenario2.node[10].veinsmobility 	minSpeed 	3.6504235994233
scalar Scenario2.node[10].veinsmobility 	maxSpeed 	18.96345657906
scalar Scenario2.node[10].veinsmobility 	totalDistance 	629.30644292796
scalar Scenario2.node[10].veinsmobility 	totalCO2Emission 	142.41398201351
scalar Scenario2.node[12].appl 	generatedWSMs 	1
scalar Scenario2.node[12].appl 	receivedWSMs 	5
scalar Scenario2.node[12].appl 	generatedBSMs 	90
scalar Scenario2.node[12].appl 	receivedBSMs 	9254
scalar Scenario2.node[12].appl 	generatedWSAs 	0
scalar Scenario2.node[12].appl 	receivedWSAs 	0
scalar Scenario2.node[12].appl 	delayWSM 	0.03048111729
scalar Scenario2.node[12].appl 	Dist_Propa 	270.82748818471
scalar Scenario2.node[12].nic.phy80211p 	busyTime 	0.022130666666666
scalar Scenario2.node[12].nic.phy80211p 	ncollisions 	40
scalar Scenario2.node[12].nic.mac1609_4 	ReceivedUnicastPackets 	0
scalar Scenario2.node[12].nic.mac1609_4 	ReceivedBroadcasts 	9259
scalar Scenario2.node[12].nic.mac1609_4 	SentPackets 	91
scalar Scenario2.node[12].nic.mac1609_4 	SNIRLostPackets 	190
scalar Scenario2.node[12].nic.mac1609_4 	RXTXLostPackets 	26
scalar Scenario2.node[12].nic.mac1609_4 	TotalLostPackets 	216
scalar Scenario2.node[12].nic.mac1609_4 	DroppedPacketsInMac 	0
scalar Scenario2.node[12].nic.mac1609_4 	TooLittleTime 	0
scalar Scenario2.node[12].nic.mac1609_4 	TimesIntoBackoff 	91
scalar Scenario2.node[12].nic.mac1609_4 	SlotsBackoff 	122
scalar Scenario2.node[12].nic.mac1609_4 	NumInternalContention 	0
scalar Scenario2.node[12].nic.mac1609_4 	totalBusyTime 	0.977675287924
scalar Scenario2.node[12].veinsmobility 	startTime 	1
scalar Scenario2.node[12].veinsmobility 	totalTime 	44
scalar Scenario2.node[12].veinsmobility 	stopTime 	46
scalar Scenario2.node[12].veinsmobility 	minSpeed 	3.8852701568365
scalar Scenario2.node[12].veinsmobility 	maxSpeed 	18.996202773422
scalar Scenario2.node[12].veinsmobility 	totalDistance 	635.78531932981
scalar Scenario2.node[12].veinsmobility 	totalCO2Emission 	140.16590807303
scalar Scenario2.node[132].appl 	generatedWSMs 	1
scalar Scenario2.node[132].appl 	receivedWSMs 	4
scalar Scenario2.node[132].appl 	generatedBSMs 	68
scalar Scenario2.node[132].appl 	receivedBSMs 	7654
scalar Scenario2.node[132].appl 	generatedWSAs 	0
scalar Scenario2.node[132].appl 	receivedWSAs 	0
scalar Scenario2.node[132].appl 	delayWSM 	0.030481035384
scalar Scenario2.node[132].appl 	Dist_Propa 	318.81828385939
scalar Scenario2.node[132].nic.phy80211p 	busyTime 	0.024578823529411
scalar Scenario2.node[132].nic.phy80211p 	ncollisions 	32
scalar Scenario2.node[132].nic.mac1609_4 	ReceivedUnicastPackets 	0
scalar Scenario2.node[132].nic.mac1609_4 	ReceivedBroadcasts 	7658
scalar Scenario2.node[132].nic.mac1609_4 	SentPackets 	69
scalar Scenario2.node[132].nic.mac1609_4 	SNIRLostPackets 	210
scalar Scenario2.node[132].nic.mac1609_4 	RXTXLostPackets 	0
scalar Scenario2.node[132].nic.mac1609_4 	TotalLostPackets 	210
scalar Scenario2.node[132].nic.mac1609_4 	DroppedPacketsInMac 	0
scalar Scenario2.node[132].nic.mac1609_4 	TooLittleTime 	0
scalar Scenario2.node[132].nic.mac1609_4 	TimesIntoBackoff 	69
scalar Scenario2.node[132].nic.mac1609_4 	SlotsBackoff 	122
scalar Scenario2.node[132].nic.mac1609_4 	NumInternalContention 	0
scalar Scenario2.node[132].nic.mac1609_4 	totalBusyTime 	0.808029306641
scalar Scenario2.node[132].veinsmobility 	startTime 	13
scalar Scenario2.node[132].veinsmobility 	totalTime 	33
scalar Scenario2.node[132].veinsmobility 	stopTime 	47
scalar Scenario2.node[132].veinsmobility 	minSpeed 	1.0325582238956
scalar Scenario2.node[132].veinsmobility 	maxSpeed 	18.997862700217
scalar Scenario2.node[132].veinsmobility 	totalDistance 	503.42720242976
scalar Scenario2.node[132].veinsmobility 	totalCO2Emission 	123.10429419579
scalar Scenario2.node[127].appl 	generatedWSMs 	1
scalar Scenario2.node[127].appl 	receivedWSMs 	5
scalar Scenario2.node[127].appl 	generatedBSMs 	70
scalar Scenario2.node[127].appl 	receivedBSMs 	7900
scalar Scenario2.node[127].appl 	generatedWSAs 	0
scalar Scenario2.node[127].appl 	receivedWSAs 	0
scalar Scenario2.node[127].appl 	delayWSM 	0.030481038219
scalar Scenario2.node[127].appl 	Dist_Propa 	310.95857903299
scalar Scenario2.node[127].nic.phy80211p 	busyTime 	0.024488685714285
scalar Scenario2.node[127].nic.phy80211p 	ncollisions 	40
scalar Scenario2.node[127].nic.mac1609_4 	ReceivedUnicastPackets 	0
scalar Scenario2.node[127].nic.mac1609_4 	ReceivedBroadcasts 	7905
scalar Scenario2.node[127].nic.mac1609_4 	SentPackets 	71
scalar Scenario2.node[127].nic.mac1609_4 	SNIRLostPackets 	201
scalar Scenario2.node[127].nic.mac1609_4 	RXTXLostPackets 	26
scalar Scenario2.node[127].nic.mac1609_4 	TotalLostPackets 	227
scalar Scenario2.node[127].nic.mac1609_4 	DroppedPacketsInMac 	0
scalar Scenario2.node[127].nic.mac1609_4 	TooLittleTime 	0
scalar Scenario2.node[127].nic.mac1609_4 	TimesIntoBackoff 	71
scalar Scenario2.node[127].nic.mac1609_4 	SlotsBackoff 	99
scalar Scenario2.node[127].nic.mac1609_4 	NumInternalContention 	0
scalar Scenario2.node[127].nic.mac1609_4 	totalBusyTime 	0.834759301261
scalar Scenario2.node[127].veinsmobility 	startTime 	12
scalar Scenario2.node[127].veinsmobility 	totalTime 	34
scalar Scenario2.node[127].veinsmobility 	stopTime 	47
scalar Scenario2.node[127].veinsmobility 	minSpeed 	3.570553295702
scalar Scenario2.node[127].veinsmobility 	maxSpeed 	18.975364867717
scalar Scenario2.node[127].veinsmobility 	totalDistance 	531.42299839614
scalar Scenario2.node[127].veinsmobility 	totalCO2Emission 	124.39114956524
scalar Scenario2.node[137].appl 	generatedWSMs 	1
scalar Scenario2.node[137].appl 	receivedWSMs 	6
scalar Scenario2.node[137].appl 	generatedBSMs 	68
scalar Scenario2.node[137].appl 	receivedBSMs 	7706
scalar Scenario2.node[137].appl 	generatedWSAs 	0
scalar Scenario2.node[137].appl 	receivedWSAs 	0
scalar Scenario2.node[137].appl 	delayWSM 	0.030480963179
scalar Scenario2.node[137].appl 	Dist_Propa 	331.53722872742
scalar Scenario2.node[137].nic.phy80211p 	busyTime 	0.024634117647058
scalar Scenario2.node[137].nic.phy80211p 	ncollisions 	35
scalar Scenario2.node[137].nic.mac1609_4 	ReceivedUnicastPackets 	0
scalar Scenario2.node[137].nic.mac1609_4 	ReceivedBroadcasts 	7712
scalar Scenario2.node[137].nic.mac1609_4 	SentPackets 	69
scalar Scenario2.node[137].nic.mac1609_4 	SNIRLostPackets 	195
scalar Scenario2.node[137].nic.mac1609_4 	RXTXLostPackets 	26
scalar Scenario2.node[137].nic.mac1609_4 	TotalLostPackets 	221
scalar Scenario2.node[137].nic.mac1609_4 	DroppedPacketsInMac 	0
scalar Scenario2.node[137].nic.mac1609_4 	TooLittleTime 	0
scalar Scenario2.node[137].nic.mac1609_4 	TimesIntoBackoff 	69
scalar Scenario2.node[137].nic.mac1609_4 	SlotsBackoff 	89
scalar Scenario2.node[137].nic.mac1609_4 	NumInternalContention 	0
scalar Scenario2.node[137].nic.mac1609_4 	totalBusyTime 	0.814085150243
scalar Scenario2.node[137].veinsmobility 	startTime 	15
scalar Scenario2.node[137].veinsmobility 	totalTime 	33
scalar Scenario2.node[137].veinsmobility 	stopTime 	49
scalar Scenario2.node[137].veinsmobility 	minSpeed 	3.7054345497005
scalar Scenario2.node[137].veinsmobility 	maxSpeed 	18.949315995281
scalar Scenario2.node[137].veinsmobility 	totalDistance 	521.67415162342
scalar Scenario2.node[137].veinsmobility 	totalCO2Emission 	120.89327527729
scalar Scenario2.node[141].appl 	generatedWSMs 	1
scalar Scenario2.node[141].appl 	receivedWSMs 	6
scalar Scenario2.node[141].appl 	generatedBSMs 	68
scalar Scenario2.node[141].appl 	receivedBSMs 	7729
scalar Scenario2.node[141].appl 	generatedWSAs 	0
scalar Scenario2.node[141].appl 	receivedWSAs 	0
scalar Scenario2.node[141].appl 	delayWSM 	0.030480962878
scalar Scenario2.node[141].appl 	Dist_Propa 	329.52305039703
scalar Scenario2.node[141].nic.phy80211p 	busyTime 	0.024756470588234
scalar Scenario2.node[141].nic.phy80211p 	ncollisions 	44
scalar Scenario2.node[141].nic.mac1609_4 	ReceivedUnicastPackets 	0
scalar Scenario2.node[141].nic.mac1609_4 	ReceivedBroadcasts 	7735
scalar Scenario2.node[141].nic.mac1609_4 	SentPackets 	69
scalar Scenario2.node[141].nic.mac1609_4 	SNIRLostPackets 	212
scalar Scenario2.node[141].nic.mac1609_4 	RXTXLostPackets 	26
scalar Scenario2.node[141].nic.mac1609_4 	TotalLostPackets 	238
scalar Scenario2.node[141].nic.mac1609_4 	DroppedPacketsInMac 	0
scalar Scenario2.node[141].nic.mac1609_4 	TooLittleTime 	0
scalar Scenario2.node[141].nic.mac1609_4 	TimesIntoBackoff 	69
scalar Scenario2.node[141].nic.mac1609_4 	SlotsBackoff 	94
scalar Scenario2.node[141].nic.mac1609_4 	NumInternalContention 	0
scalar Scenario2.node[141].nic.mac1609_4 	totalBusyTime 	0.817413150837
scalar Scenario2.node[141].veinsmobility 	startTime 	15
scalar Scenario2.node[141].veinsmobility 	totalTime 	33
scalar Scenario2.node[141].veinsmobility 	stopTime 	49
scalar Scenario2.node[141].veinsmobility 	minSpeed 	2.4699518346809
scalar Scenario2.node[141].veinsmobility 	maxSpeed 	18.998616740918
scalar Scenario2.node[141].veinsmobility 	totalDistance 	536.39102144913
scalar Scenario2.node[141].veinsmobility 	totalCO2Emission 	124.36501758974
scalar Scenario2.node[105].appl 	generatedWSMs 	1
scalar Scenario2.node[105].appl 	receivedWSMs 	10
scalar Scenario2.node[105].appl 	generatedBSMs 	84
scalar Scenario2.node[105].appl 	receivedBSMs 	9721
scalar Scenario2.node[105].appl 	generatedWSAs 	0
scalar Scenario2.node[105].appl 	receivedWSAs 	0
scalar Scenario2.node[105].appl 	delayWSM 	0.000237046342
scalar Scenario2.node[105].appl 	Dist_Propa 	414.59185408364
scalar Scenario2.node[105].nic.phy80211p 	busyTime 	0.024642666666666
scalar Scenario2.node[105].nic.phy80211p 	ncollisions 	96
scalar Scenario2.node[105].nic.mac1609_4 	ReceivedUnicastPackets 	0
scalar Scenario2.node[105].nic.mac1609_4 	ReceivedBroadcasts 	9731
scalar Scenario2.node[105].nic.mac1609_4 	SentPackets 	85
scalar Scenario2.node[105].nic.mac1609_4 	SNIRLostPackets 	179
scalar Scenario2.node[105].nic.mac1609_4 	RXTXLostPackets 	129
scalar Scenario2.node[105].nic.mac1609_4 	TotalLostPackets 	308
scalar Scenario2.node[105].nic.mac1609_4 	DroppedPacketsInMac 	0
scalar Scenario2.node[105].nic.mac1609_4 	TooLittleTime 	0
scalar Scenario2.node[105].nic.mac1609_4 	TimesIntoBackoff 	85
scalar Scenario2.node[105].nic.mac1609_4 	SlotsBackoff 	128
scalar Scenario2.node[105].nic.mac1609_4 	NumInternalContention 	0
scalar Scenario2.node[105].nic.mac1609_4 	totalBusyTime 	1.032725208626
scalar Scenario2.node[105].veinsmobility 	startTime 	7
scalar Scenario2.node[105].veinsmobility 	totalTime 	41
scalar Scenario2.node[105].veinsmobility 	stopTime 	49
scalar Scenario2.node[105].veinsmobility 	minSpeed 	0.79846306713479
scalar Scenario2.node[105].veinsmobility 	maxSpeed 	18.9987192666
scalar Scenario2.node[105].veinsmobility 	totalDistance 	574.23690866301
scalar Scenario2.node[105].veinsmobility 	totalCO2Emission 	139.39240827924
scalar Scenario2.node[163].appl 	generatedWSMs 	1
scalar Scenario2.node[163].appl 	receivedWSMs 	6
scalar Scenario2.node[163].appl 	generatedBSMs 	64
scalar Scenario2.node[163].appl 	receivedBSMs 	7411
scalar Scenario2.node[163].appl 	generatedWSAs 	0
scalar Scenario2.node[163].appl 	receivedWSAs 	0
scalar Scenario2.node[163].appl 	delayWSM 	0.030480864535
scalar Scenario2.node[163].appl 	Dist_Propa 	368.72128582689
scalar Scenario2.node[163].nic.phy80211p 	busyTime 	0.025433749999999
scalar Scenario2.node[163].nic.phy80211p 	ncollisions 	62
scalar Scenario2.node[163].nic.mac1609_4 	ReceivedUnicastPackets 	0
scalar Scenario2.node[163].nic.mac1609_4 	ReceivedBroadcasts 	7417
scalar Scenario2.node[163].nic.mac1609_4 	SentPackets 	65
scalar Scenario2.node[163].nic.mac1609_4 	SNIRLostPackets 	250
scalar Scenario2.node[163].nic.mac1609_4 	RXTXLostPackets 	26
scalar Scenario2.node[163].nic.mac1609_4 	TotalLostPackets 	276
scalar Scenario2.node[163].nic.mac1609_4 	DroppedPacketsInMac 	0
scalar Scenario2.node[163].nic.mac1609_4 	TooLittleTime 	0
scalar Scenario2.node[163].nic.mac1609_4 	TimesIntoBackoff 	65
scalar Scenario2.node[163].nic.mac1609_4 	SlotsBackoff 	95
scalar Scenario2.node[163].nic.mac1609_4 	NumInternalContention 	0
scalar Scenario2.node[163].nic.mac1609_4 	totalBusyTime 	0.785793197252
scalar Scenario2.node[163].veinsmobility 	startTime 	18
scalar Scenario2.node[163].veinsmobility 	totalTime 	31
scalar Scenario2.node[163].veinsmobility 	stopTime 	50
scalar Scenario2.node[163].veinsmobility 	minSpeed 	3.2362021176079
scalar Scenario2.node[163].veinsmobility 	maxSpeed 	18.995516344768
scalar Scenario2.node[163].veinsmobility 	totalDistance 	507.69244103002
scalar Scenario2.node[163].veinsmobility 	totalCO2Emission 	119.51915105506
scalar Scenario2.node[164].appl 	generatedWSMs 	1
scalar Scenario2.node[164].appl 	receivedWSMs 	10
scalar Scenario2.node[164].appl 	generatedBSMs 	66
scalar Scenario2.node[164].appl 	receivedBSMs 	8010
scalar Scenario2.node[164].appl 	generatedWSAs 	0
scalar Scenario2.node[164].appl 	receivedWSAs 	0
scalar Scenario2.node[164].appl 	delayWSM 	0.000236968297
scalar Scenario2.node[164].appl 	Dist_Propa 	545.82006644815
scalar Scenario2.node[164].nic.phy80211p 	busyTime 	0.025842666666665
scalar Scenario2.node[164].nic.phy80211p 	ncollisions 	72
scalar Scenario2.node[164].nic.mac1609_4 	ReceivedUnicastPackets 	0
scalar Scenario2.node[164].nic.mac1609_4 	ReceivedBroadcasts 	8020
scalar Scenario2.node[164].nic.mac1609_4 	SentPackets 	67
scalar Scenario2.node[164].nic.mac1609_4 	SNIRLostPackets 	137
scalar Scenario2.node[164].nic.mac1609_4 	RXTXLostPackets 	137
scalar Scenario2.node[164].nic.mac1609_4 	TotalLostPackets 	274
scalar Scenario2.node[164].nic.mac1609_4 	DroppedPacketsInMac 	0
scalar Scenario2.node[164].nic.mac1609_4 	TooLittleTime 	0
scalar Scenario2.node[164].nic.mac1609_4 	TimesIntoBackoff 	67
scalar Scenario2.node[164].nic.mac1609_4 	SlotsBackoff 	93
scalar Scenario2.node[164].nic.mac1609_4 	NumInternalContention 	0
scalar Scenario2.node[164].nic.mac1609_4 	totalBusyTime 	0.850395229943
scalar Scenario2.node[164].veinsmobility 	startTime 	18
scalar Scenario2.node[164].veinsmobility 	totalTime 	32
scalar Scenario2.node[164].veinsmobility 	stopTime 	51
scalar Scenario2.node[164].veinsmobility 	minSpeed 	2.6560707084217
scalar Scenario2.node[164].veinsmobility 	maxSpeed 	18.995079022406
scalar Scenario2.node[164].veinsmobility 	totalDistance 	520.46900373988
scalar Scenario2.node[164].veinsmobility 	totalCO2Emission 	121.70739795369
scalar Scenario2.node[151].appl 	generatedWSMs 	1
scalar Scenario2.node[151].appl 	receivedWSMs 	7
scalar Scenario2.node[151].appl 	generatedBSMs 	70
scalar Scenario2.node[151].appl 	receivedBSMs 	8444
scalar Scenario2.node[151].appl 	generatedWSAs 	0
scalar Scenario2.node[151].appl 	receivedWSAs 	0
scalar Scenario2.node[151].appl 	delayWSM 	0.000237258646
scalar Scenario2.node[151].appl 	Dist_Propa 	356.34539729228
scalar Scenario2.node[151].nic.phy80211p 	busyTime 	0.026698742857142
scalar Scenario2.node[151].nic.phy80211p 	ncollisions 	93
scalar Scenario2.node[151].nic.mac1609_4 	ReceivedUnicastPackets 	0
scalar Scenario2.node[151].nic.mac1609_4 	ReceivedBroadcasts 	8451
scalar Scenario2.node[151].nic.mac1609_4 	SentPackets 	71
scalar Scenario2.node[151].nic.mac1609_4 	SNIRLostPackets 	336
scalar Scenario2.node[151].nic.mac1609_4 	RXTXLostPackets 	2
scalar Scenario2.node[151].nic.mac1609_4 	TotalLostPackets 	338
scalar Scenario2.node[151].nic.mac1609_4 	DroppedPacketsInMac 	0
scalar Scenario2.node[151].nic.mac1609_4 	TooLittleTime 	0
scalar Scenario2.node[151].nic.mac1609_4 	TimesIntoBackoff 	71
scalar Scenario2.node[151].nic.mac1609_4 	SlotsBackoff 	99
scalar Scenario2.node[151].nic.mac1609_4 	NumInternalContention 	0
scalar Scenario2.node[151].nic.mac1609_4 	totalBusyTime 	0.897311011834
scalar Scenario2.node[151].veinsmobility 	startTime 	16
scalar Scenario2.node[151].veinsmobility 	totalTime 	34
scalar Scenario2.node[151].veinsmobility 	stopTime 	51
scalar Scenario2.node[151].veinsmobility 	minSpeed 	1.4619825295685
scalar Scenario2.node[151].veinsmobility 	maxSpeed 	18.99749420386
scalar Scenario2.node[151].veinsmobility 	totalDistance 	519.28776174372
scalar Scenario2.node[151].veinsmobility 	totalCO2Emission 	125.8211529421
scalar Scenario2.node[145].appl 	generatedWSMs 	1
scalar Scenario2.node[145].appl 	receivedWSMs 	7
scalar Scenario2.node[145].appl 	generatedBSMs 	70
scalar Scenario2.node[145].appl 	receivedBSMs 	8456
scalar Scenario2.node[145].appl 	generatedWSAs 	0
scalar Scenario2.node[145].appl 	receivedWSAs 	0
scalar Scenario2.node[145].appl 	delayWSM 	0.00023725912
scalar Scenario2.node[145].appl 	Dist_Propa 	358.89165652364
scalar Scenario2.node[145].nic.phy80211p 	busyTime 	0.026728457142856
scalar Scenario2.node[145].nic.phy80211p 	ncollisions 	91
scalar Scenario2.node[145].nic.mac1609_4 	ReceivedUnicastPackets 	0
scalar Scenario2.node[145].nic.mac1609_4 	ReceivedBroadcasts 	8463
scalar Scenario2.node[145].nic.mac1609_4 	SentPackets 	71
scalar Scenario2.node[145].nic.mac1609_4 	SNIRLostPackets 	334
scalar Scenario2.node[145].nic.mac1609_4 	RXTXLostPackets 	2
scalar Scenario2.node[145].nic.mac1609_4 	TotalLostPackets 	336
scalar Scenario2.node[145].nic.mac1609_4 	DroppedPacketsInMac 	0
scalar Scenario2.node[145].nic.mac1609_4 	TooLittleTime 	0
scalar Scenario2.node[145].nic.mac1609_4 	TimesIntoBackoff 	71
scalar Scenario2.node[145].nic.mac1609_4 	SlotsBackoff 	114
scalar Scenario2.node[145].nic.mac1609_4 	NumInternalContention 	0
scalar Scenario2.node[145].nic.mac1609_4 	totalBusyTime 	0.89835101117
scalar Scenario2.node[145].veinsmobility 	startTime 	16
scalar Scenario2.node[145].veinsmobility 	totalTime 	34
scalar Scenario2.node[145].veinsmobility 	stopTime 	51
scalar Scenario2.node[145].veinsmobility 	minSpeed 	3.482900294836
scalar Scenario2.node[145].veinsmobility 	maxSpeed 	18.993171909307
scalar Scenario2.node[145].veinsmobility 	totalDistance 	528.29977957109
scalar Scenario2.node[145].veinsmobility 	totalCO2Emission 	124.25854551765
scalar Scenario2.node[30].appl 	generatedWSMs 	1
scalar Scenario2.node[30].appl 	receivedWSMs 	10
scalar Scenario2.node[30].appl 	generatedBSMs 	102
scalar Scenario2.node[30].appl 	receivedBSMs 	11747
scalar Scenario2.node[30].appl 	generatedWSAs 	0
scalar Scenario2.node[30].appl 	receivedWSAs 	0
scalar Scenario2.node[30].appl 	delayWSM 	0.00023693457
scalar Scenario2.node[30].appl 	Dist_Propa 	565.69515448416
scalar Scenario2.node[30].nic.phy80211p 	busyTime 	0.024373803921572
scalar Scenario2.node[30].nic.phy80211p 	ncollisions 	68
scalar Scenario2.node[30].nic.mac1609_4 	ReceivedUnicastPackets 	0
scalar Scenario2.node[30].nic.mac1609_4 	ReceivedBroadcasts 	11757
scalar Scenario2.node[30].nic.mac1609_4 	SentPackets 	103
scalar Scenario2.node[30].nic.mac1609_4 	SNIRLostPackets 	150
scalar Scenario2.node[30].nic.mac1609_4 	RXTXLostPackets 	145
scalar Scenario2.node[30].nic.mac1609_4 	TotalLostPackets 	295
scalar Scenario2.node[30].nic.mac1609_4 	DroppedPacketsInMac 	0
scalar Scenario2.node[30].nic.mac1609_4 	TooLittleTime 	0
scalar Scenario2.node[30].nic.mac1609_4 	TimesIntoBackoff 	103
scalar Scenario2.node[30].nic.mac1609_4 	SlotsBackoff 	142
scalar Scenario2.node[30].nic.mac1609_4 	NumInternalContention 	0
scalar Scenario2.node[30].nic.mac1609_4 	totalBusyTime 	1.242407346448
scalar Scenario2.node[30].veinsmobility 	startTime 	1
scalar Scenario2.node[30].veinsmobility 	totalTime 	50
scalar Scenario2.node[30].veinsmobility 	stopTime 	52
scalar Scenario2.node[30].veinsmobility 	minSpeed 	2.6830987371857
scalar Scenario2.node[30].veinsmobility 	maxSpeed 	18.998360855293
scalar Scenario2.node[30].veinsmobility 	totalDistance 	840.56722214892
scalar Scenario2.node[30].veinsmobility 	totalCO2Emission 	180.75164650604
scalar Scenario2.node[7].appl 	generatedWSMs 	1
scalar Scenario2.node[7].appl 	receivedWSMs 	6
scalar Scenario2.node[7].appl 	generatedBSMs 	104
scalar Scenario2.node[7].appl 	receivedBSMs 	11828
scalar Scenario2.node[7].appl 	generatedWSAs 	0
scalar Scenario2.node[7].appl 	receivedWSAs 	0
scalar Scenario2.node[7].appl 	delayWSM 	0.000237193315
scalar Scenario2.node[7].appl 	Dist_Propa 	153.85785056831
scalar Scenario2.node[7].nic.phy80211p 	busyTime 	0.024826000000005
scalar Scenario2.node[7].nic.phy80211p 	ncollisions 	106
scalar Scenario2.node[7].nic.mac1609_4 	ReceivedUnicastPackets 	0
scalar Scenario2.node[7].nic.mac1609_4 	ReceivedBroadcasts 	11834
scalar Scenario2.node[7].nic.mac1609_4 	SentPackets 	105
scalar Scenario2.node[7].nic.mac1609_4 	SNIRLostPackets 	371
scalar Scenario2.node[7].nic.mac1609_4 	RXTXLostPackets 	0
scalar Scenario2.node[7].nic.mac1609_4 	TotalLostPackets 	371
scalar Scenario2.node[7].nic.mac1609_4 	DroppedPacketsInMac 	0
scalar Scenario2.node[7].nic.mac1609_4 	TooLittleTime 	0
scalar Scenario2.node[7].nic.mac1609_4 	TimesIntoBackoff 	105
scalar Scenario2.node[7].nic.mac1609_4 	SlotsBackoff 	165
scalar Scenario2.node[7].nic.mac1609_4 	NumInternalContention 	0
scalar Scenario2.node[7].nic.mac1609_4 	totalBusyTime 	1.254193001181
scalar Scenario2.node[7].veinsmobility 	startTime 	1
scalar Scenario2.node[7].veinsmobility 	totalTime 	51
scalar Scenario2.node[7].veinsmobility 	stopTime 	53
scalar Scenario2.node[7].veinsmobility 	minSpeed 	3.4814017046965
scalar Scenario2.node[7].veinsmobility 	maxSpeed 	18.941884985482
scalar Scenario2.node[7].veinsmobility 	totalDistance 	681.4852853963
scalar Scenario2.node[7].veinsmobility 	totalCO2Emission 	169.58589405808
scalar Scenario2.node[172].appl 	generatedWSMs 	1
scalar Scenario2.node[172].appl 	receivedWSMs 	6
scalar Scenario2.node[172].appl 	generatedBSMs 	66
scalar Scenario2.node[172].appl 	receivedBSMs 	7917
scalar Scenario2.node[172].appl 	generatedWSAs 	0
scalar Scenario2.node[172].appl 	receivedWSAs 	0
scalar Scenario2.node[172].appl 	delayWSM 	0.000237161383
scalar Scenario2.node[172].appl 	Dist_Propa 	188.05766200879
scalar Scenario2.node[172].nic.phy80211p 	busyTime 	0.026623030303029
scalar Scenario2.node[172].nic.phy80211p 	ncollisions 	76
scalar Scenario2.node[172].nic.mac1609_4 	ReceivedUnicastPackets 	0
scalar Scenario2.node[172].nic.mac1609_4 	ReceivedBroadcasts 	7923
scalar Scenario2.node[172].nic.mac1609_4 	SentPackets 	67
scalar Scenario2.node[172].nic.mac1609_4 	SNIRLostPackets 	313
scalar Scenario2.node[172].nic.mac1609_4 	RXTXLostPackets 	0
scalar Scenario2.node[172].nic.mac1609_4 	TotalLostPackets 	313
scalar Scenario2.node[172].nic.mac1609_4 	DroppedPacketsInMac 	0
scalar Scenario2.node[172].nic.mac1609_4 	TooLittleTime 	0
scalar Scenario2.node[172].nic.mac1609_4 	TimesIntoBackoff 	67
scalar Scenario2.node[172].nic.mac1609_4 	SlotsBackoff 	107
scalar Scenario2.node[172].nic.mac1609_4 	NumInternalContention 	0
scalar Scenario2.node[172].nic.mac1609_4 	totalBusyTime 	0.840339002012
scalar Scenario2.node[172].veinsmobility 	startTime 	20
scalar Scenario2.node[172].veinsmobility 	totalTime 	32
scalar Scenario2.node[172].veinsmobility 	stopTime 	53
scalar Scenario2.node[172].veinsmobility 	minSpeed 	2.4127571361848
scalar Scenario2.node[172].veinsmobility 	maxSpeed 	18.994554119785
scalar Scenario2.node[172].veinsmobility 	totalDistance 	522.38118095875
scalar Scenario2.node[172].veinsmobility 	totalCO2Emission 	122.12195354617
scalar Scenario2.node[1].appl 	generatedWSMs 	1
scalar Scenario2.node[1].appl 	receivedWSMs 	7
scalar Scenario2.node[1].appl 	generatedBSMs 	106
scalar Scenario2.node[1].appl 	receivedBSMs 	12307
scalar Scenario2.node[1].appl 	generatedWSAs 	0
scalar Scenario2.node[1].appl 	receivedWSAs 	0
scalar Scenario2.node[1].appl 	delayWSM 	0.00023712991
scalar Scenario2.node[1].appl 	Dist_Propa 	149.08187199509
scalar Scenario2.node[1].nic.phy80211p 	busyTime 	0.02472739622642
scalar Scenario2.node[1].nic.phy80211p 	ncollisions 	103
scalar Scenario2.node[1].nic.mac1609_4 	ReceivedUnicastPackets 	0
scalar Scenario2.node[1].nic.mac1609_4 	ReceivedBroadcasts 	12314
scalar Scenario2.node[1].nic.mac1609_4 	SentPackets 	107
scalar Scenario2.node[1].nic.mac1609_4 	SNIRLostPackets 	237
scalar Scenario2.node[1].nic.mac1609_4 	RXTXLostPackets 	136
scalar Scenario2.node[1].nic.mac1609_4 	TotalLostPackets 	373
scalar Scenario2.node[1].nic.mac1609_4 	DroppedPacketsInMac 	0
scalar Scenario2.node[1].nic.mac1609_4 	TooLittleTime 	0
scalar Scenario2.node[1].nic.mac1609_4 	TimesIntoBackoff 	107
scalar Scenario2.node[1].nic.mac1609_4 	SlotsBackoff 	168
scalar Scenario2.node[1].nic.mac1609_4 	NumInternalContention 	0
scalar Scenario2.node[1].nic.mac1609_4 	totalBusyTime 	1.304139002081
scalar Scenario2.node[1].veinsmobility 	startTime 	1
scalar Scenario2.node[1].veinsmobility 	totalTime 	52
scalar Scenario2.node[1].veinsmobility 	stopTime 	54
scalar Scenario2.node[1].veinsmobility 	minSpeed 	3.7822135175928
scalar Scenario2.node[1].veinsmobility 	maxSpeed 	18.973847482234
scalar Scenario2.node[1].veinsmobility 	totalDistance 	704.43927912732
scalar Scenario2.node[1].veinsmobility 	totalCO2Emission 	171.29382234949
scalar Scenario2.node[0].appl 	generatedWSMs 	1
scalar Scenario2.node[0].appl 	receivedWSMs 	7
scalar Scenario2.node[0].appl 	generatedBSMs 	108
scalar Scenario2.node[0].appl 	receivedBSMs 	12727
scalar Scenario2.node[0].appl 	generatedWSAs 	0
scalar Scenario2.node[0].appl 	receivedWSAs 	0
scalar Scenario2.node[0].appl 	delayWSM 	0.000237069345
scalar Scenario2.node[0].appl 	Dist_Propa 	144.01883129268
scalar Scenario2.node[0].nic.phy80211p 	busyTime 	0.025070666666672
scalar Scenario2.node[0].nic.phy80211p 	ncollisions 	101
scalar Scenario2.node[0].nic.mac1609_4 	ReceivedUnicastPackets 	0
scalar Scenario2.node[0].nic.mac1609_4 	ReceivedBroadcasts 	12734
scalar Scenario2.node[0].nic.mac1609_4 	SentPackets 	109
scalar Scenario2.node[0].nic.mac1609_4 	SNIRLostPackets 	233
scalar Scenario2.node[0].nic.mac1609_4 	RXTXLostPackets 	141
scalar Scenario2.node[0].nic.mac1609_4 	TotalLostPackets 	374
scalar Scenario2.node[0].nic.mac1609_4 	DroppedPacketsInMac 	0
scalar Scenario2.node[0].nic.mac1609_4 	TooLittleTime 	0
scalar Scenario2.node[0].nic.mac1609_4 	TimesIntoBackoff 	109
scalar Scenario2.node[0].nic.mac1609_4 	SlotsBackoff 	177
scalar Scenario2.node[0].nic.mac1609_4 	NumInternalContention 	0
scalar Scenario2.node[0].nic.mac1609_4 	totalBusyTime 	1.347821121141
scalar Scenario2.node[0].veinsmobility 	startTime 	1
scalar Scenario2.node[0].veinsmobility 	totalTime 	53
scalar Scenario2.node[0].veinsmobility 	stopTime 	55
scalar Scenario2.node[0].veinsmobility 	minSpeed 	4.0518554631622
scalar Scenario2.node[0].veinsmobility 	maxSpeed 	18.978534762523
scalar Scenario2.node[0].veinsmobility 	totalDistance 	722.21584162014
scalar Scenario2.node[0].veinsmobility 	totalCO2Emission 	172.20829987187
scalar Scenario2.node[187].appl 	generatedWSMs 	1
scalar Scenario2.node[187].appl 	receivedWSMs 	7
scalar Scenario2.node[187].appl 	generatedBSMs 	64
scalar Scenario2.node[187].appl 	receivedBSMs 	7774
scalar Scenario2.node[187].appl 	generatedWSAs 	0
scalar Scenario2.node[187].appl 	receivedWSAs 	0
scalar Scenario2.node[187].appl 	delayWSM 	0.000236994103
scalar Scenario2.node[187].appl 	Dist_Propa 	67.128487676984
scalar Scenario2.node[187].nic.phy80211p 	busyTime 	0.025932499999999
scalar Scenario2.node[187].nic.phy80211p 	ncollisions 	61
scalar Scenario2.node[187].nic.mac1609_4 	ReceivedUnicastPackets 	0
scalar Scenario2.node[187].nic.mac1609_4 	ReceivedBroadcasts 	7781
scalar Scenario2.node[187].nic.mac1609_4 	SentPackets 	65
scalar Scenario2.node[187].nic.mac1609_4 	SNIRLostPackets 	149
scalar Scenario2.node[187].nic.mac1609_4 	RXTXLostPackets 	147
scalar Scenario2.node[187].nic.mac1609_4 	TotalLostPackets 	296
scalar Scenario2.node[187].nic.mac1609_4 	DroppedPacketsInMac 	0
scalar Scenario2.node[187].nic.mac1609_4 	TooLittleTime 	0
scalar Scenario2.node[187].nic.mac1609_4 	TimesIntoBackoff 	65
scalar Scenario2.node[187].nic.mac1609_4 	SlotsBackoff 	108
scalar Scenario2.node[187].nic.mac1609_4 	NumInternalContention 	0
scalar Scenario2.node[187].nic.mac1609_4 	totalBusyTime 	0.82392915112
scalar Scenario2.node[187].veinsmobility 	startTime 	24
scalar Scenario2.node[187].veinsmobility 	totalTime 	31
scalar Scenario2.node[187].veinsmobility 	stopTime 	56
scalar Scenario2.node[187].veinsmobility 	minSpeed 	3.5479495325158
scalar Scenario2.node[187].veinsmobility 	maxSpeed 	18.989325714761
scalar Scenario2.node[187].veinsmobility 	totalDistance 	512.82987526149
scalar Scenario2.node[187].veinsmobility 	totalCO2Emission 	119.00436191503
scalar Scenario2.node[59].appl 	generatedWSMs 	1
scalar Scenario2.node[59].appl 	receivedWSMs 	7
scalar Scenario2.node[59].appl 	generatedBSMs 	108
scalar Scenario2.node[59].appl 	receivedBSMs 	13078
scalar Scenario2.node[59].appl 	generatedWSAs 	0
scalar Scenario2.node[59].appl 	receivedWSAs 	0
scalar Scenario2.node[59].appl 	delayWSM 	0.000237011277
scalar Scenario2.node[59].appl 	Dist_Propa 	135.04340850861
scalar Scenario2.node[59].nic.phy80211p 	busyTime 	0.025740888888895
scalar Scenario2.node[59].nic.phy80211p 	ncollisions 	100
scalar Scenario2.node[59].nic.mac1609_4 	ReceivedUnicastPackets 	0
scalar Scenario2.node[59].nic.mac1609_4 	ReceivedBroadcasts 	13085
scalar Scenario2.node[59].nic.mac1609_4 	SentPackets 	109
scalar Scenario2.node[59].nic.mac1609_4 	SNIRLostPackets 	230
scalar Scenario2.node[59].nic.mac1609_4 	RXTXLostPackets 	146
scalar Scenario2.node[59].nic.mac1609_4 	TotalLostPackets 	376
scalar Scenario2.node[59].nic.mac1609_4 	DroppedPacketsInMac 	0
scalar Scenario2.node[59].nic.mac1609_4 	TooLittleTime 	0
scalar Scenario2.node[59].nic.mac1609_4 	TimesIntoBackoff 	109
scalar Scenario2.node[59].nic.mac1609_4 	SlotsBackoff 	154
scalar Scenario2.node[59].nic.mac1609_4 	NumInternalContention 	0
scalar Scenario2.node[59].nic.mac1609_4 	totalBusyTime 	1.384221189847
scalar Scenario2.node[59].veinsmobility 	startTime 	2
scalar Scenario2.node[59].veinsmobility 	totalTime 	53
scalar Scenario2.node[59].veinsmobility 	stopTime 	56
scalar Scenario2.node[59].veinsmobility 	minSpeed 	3.6013252442564
scalar Scenario2.node[59].veinsmobility 	maxSpeed 	18.987841719773
scalar Scenario2.node[59].veinsmobility 	totalDistance 	716.20343049081
scalar Scenario2.node[59].veinsmobility 	totalCO2Emission 	168.97854168429
scalar Scenario2.node[79].appl 	generatedWSMs 	1
scalar Scenario2.node[79].appl 	receivedWSMs 	7
scalar Scenario2.node[79].appl 	generatedBSMs 	106
scalar Scenario2.node[79].appl 	receivedBSMs 	12713
scalar Scenario2.node[79].appl 	generatedWSAs 	0
scalar Scenario2.node[79].appl 	receivedWSAs 	0
scalar Scenario2.node[79].appl 	delayWSM 	0.000236847836
scalar Scenario2.node[79].appl 	Dist_Propa 	444.98440475505
scalar Scenario2.node[79].nic.phy80211p 	busyTime 	0.025379622641515
scalar Scenario2.node[79].nic.phy80211p 	ncollisions 	77
scalar Scenario2.node[79].nic.mac1609_4 	ReceivedUnicastPackets 	0
scalar Scenario2.node[79].nic.mac1609_4 	ReceivedBroadcasts 	12720
scalar Scenario2.node[79].nic.mac1609_4 	SentPackets 	107
scalar Scenario2.node[79].nic.mac1609_4 	SNIRLostPackets 	172
scalar Scenario2.node[79].nic.mac1609_4 	RXTXLostPackets 	153
scalar Scenario2.node[79].nic.mac1609_4 	TotalLostPackets 	325
scalar Scenario2.node[79].nic.mac1609_4 	DroppedPacketsInMac 	0
scalar Scenario2.node[79].nic.mac1609_4 	TooLittleTime 	0
scalar Scenario2.node[79].nic.mac1609_4 	TimesIntoBackoff 	107
scalar Scenario2.node[79].nic.mac1609_4 	SlotsBackoff 	158
scalar Scenario2.node[79].nic.mac1609_4 	NumInternalContention 	0
scalar Scenario2.node[79].nic.mac1609_4 	totalBusyTime 	1.343659282123
scalar Scenario2.node[79].veinsmobility 	startTime 	3
scalar Scenario2.node[79].veinsmobility 	totalTime 	52
scalar Scenario2.node[79].veinsmobility 	stopTime 	56
scalar Scenario2.node[79].veinsmobility 	minSpeed 	2.4267099683262
scalar Scenario2.node[79].veinsmobility 	maxSpeed 	18.985454387709
scalar Scenario2.node[79].veinsmobility 	totalDistance 	605.76482859178
scalar Scenario2.node[79].veinsmobility 	totalCO2Emission 	160.49542827298
scalar Scenario2.node[184].appl 	generatedWSMs 	1
scalar Scenario2.node[184].appl 	receivedWSMs 	8
scalar Scenario2.node[184].appl 	generatedBSMs 	68
scalar Scenario2.node[184].appl 	receivedBSMs 	8557
scalar Scenario2.node[184].appl 	generatedWSAs 	0
scalar Scenario2.node[184].appl 	receivedWSAs 	0
scalar Scenario2.node[184].appl 	delayWSM 	0.000236935016
scalar Scenario2.node[184].appl 	Dist_Propa 	16.084981621441
scalar Scenario2.node[184].nic.phy80211p 	busyTime 	0.026817411764704
scalar Scenario2.node[184].nic.phy80211p 	ncollisions 	64
scalar Scenario2.node[184].nic.mac1609_4 	ReceivedUnicastPackets 	0
scalar Scenario2.node[184].nic.mac1609_4 	ReceivedBroadcasts 	8565
scalar Scenario2.node[184].nic.mac1609_4 	SentPackets 	69
scalar Scenario2.node[184].nic.mac1609_4 	SNIRLostPackets 	153
scalar Scenario2.node[184].nic.mac1609_4 	RXTXLostPackets 	152
scalar Scenario2.node[184].nic.mac1609_4 	TotalLostPackets 	305
scalar Scenario2.node[184].nic.mac1609_4 	DroppedPacketsInMac 	0
scalar Scenario2.node[184].nic.mac1609_4 	TooLittleTime 	0
scalar Scenario2.node[184].nic.mac1609_4 	TimesIntoBackoff 	70
scalar Scenario2.node[184].nic.mac1609_4 	SlotsBackoff 	105
scalar Scenario2.node[184].nic.mac1609_4 	NumInternalContention 	0
scalar Scenario2.node[184].nic.mac1609_4 	totalBusyTime 	0.906325259507
scalar Scenario2.node[184].veinsmobility 	startTime 	23
scalar Scenario2.node[184].veinsmobility 	totalTime 	33
scalar Scenario2.node[184].veinsmobility 	stopTime 	57
scalar Scenario2.node[184].veinsmobility 	minSpeed 	1.4962625184391
scalar Scenario2.node[184].veinsmobility 	maxSpeed 	18.979892871417
scalar Scenario2.node[184].veinsmobility 	totalDistance 	514.97323348459
scalar Scenario2.node[184].veinsmobility 	totalCO2Emission 	122.9472972326
scalar Scenario2.node[13].appl 	generatedWSMs 	1
scalar Scenario2.node[13].appl 	receivedWSMs 	8
scalar Scenario2.node[13].appl 	generatedBSMs 	112
scalar Scenario2.node[13].appl 	receivedBSMs 	13571
scalar Scenario2.node[13].appl 	generatedWSAs 	0
scalar Scenario2.node[13].appl 	receivedWSAs 	0
scalar Scenario2.node[13].appl 	delayWSM 	0.000236955638
scalar Scenario2.node[13].appl 	Dist_Propa 	121.19830788086
scalar Scenario2.node[13].nic.phy80211p 	busyTime 	0.02572414285715
scalar Scenario2.node[13].nic.phy80211p 	ncollisions 	95
scalar Scenario2.node[13].nic.mac1609_4 	ReceivedUnicastPackets 	0
scalar Scenario2.node[13].nic.mac1609_4 	ReceivedBroadcasts 	13579
scalar Scenario2.node[13].nic.mac1609_4 	SentPackets 	113
scalar Scenario2.node[13].nic.mac1609_4 	SNIRLostPackets 	222
scalar Scenario2.node[13].nic.mac1609_4 	RXTXLostPackets 	150
scalar Scenario2.node[13].nic.mac1609_4 	TotalLostPackets 	372
scalar Scenario2.node[13].nic.mac1609_4 	DroppedPacketsInMac 	0
scalar Scenario2.node[13].nic.mac1609_4 	TooLittleTime 	0
scalar Scenario2.node[13].nic.mac1609_4 	TimesIntoBackoff 	113
scalar Scenario2.node[13].nic.mac1609_4 	SlotsBackoff 	176
scalar Scenario2.node[13].nic.mac1609_4 	NumInternalContention 	0
scalar Scenario2.node[13].nic.mac1609_4 	totalBusyTime 	1.435625227443
scalar Scenario2.node[13].veinsmobility 	startTime 	1
scalar Scenario2.node[13].veinsmobility 	totalTime 	55
scalar Scenario2.node[13].veinsmobility 	stopTime 	57
scalar Scenario2.node[13].veinsmobility 	minSpeed 	3.7319341546602
scalar Scenario2.node[13].veinsmobility 	maxSpeed 	18.914364551105
scalar Scenario2.node[13].veinsmobility 	totalDistance 	760.32197011235
scalar Scenario2.node[13].veinsmobility 	totalCO2Emission 	178.60946014272
scalar Scenario2.node[168].appl 	generatedWSMs 	1
scalar Scenario2.node[168].appl 	receivedWSMs 	8
scalar Scenario2.node[168].appl 	generatedBSMs 	76
scalar Scenario2.node[168].appl 	receivedBSMs 	9934
scalar Scenario2.node[168].appl 	generatedWSAs 	0
scalar Scenario2.node[168].appl 	receivedWSAs 	0
scalar Scenario2.node[168].appl 	delayWSM 	0.000236891221
scalar Scenario2.node[168].appl 	Dist_Propa 	46.686368633114
scalar Scenario2.node[168].nic.phy80211p 	busyTime 	0.027830947368421
scalar Scenario2.node[168].nic.phy80211p 	ncollisions 	77
scalar Scenario2.node[168].nic.mac1609_4 	ReceivedUnicastPackets 	0
scalar Scenario2.node[168].nic.mac1609_4 	ReceivedBroadcasts 	9942
scalar Scenario2.node[168].nic.mac1609_4 	SentPackets 	77
scalar Scenario2.node[168].nic.mac1609_4 	SNIRLostPackets 	179
scalar Scenario2.node[168].nic.mac1609_4 	RXTXLostPackets 	153
scalar Scenario2.node[168].nic.mac1609_4 	TotalLostPackets 	332
scalar Scenario2.node[168].nic.mac1609_4 	DroppedPacketsInMac 	0
scalar Scenario2.node[168].nic.mac1609_4 	TooLittleTime 	0
scalar Scenario2.node[168].nic.mac1609_4 	TimesIntoBackoff 	77
scalar Scenario2.node[168].nic.mac1609_4 	SlotsBackoff 	117
scalar Scenario2.node[168].nic.mac1609_4 	NumInternalContention 	0
scalar Scenario2.node[168].nic.mac1609_4 	totalBusyTime 	1.051725240443
scalar Scenario2.node[168].veinsmobility 	startTime 	20
scalar Scenario2.node[168].veinsmobility 	totalTime 	37
scalar Scenario2.node[168].veinsmobility 	stopTime 	58
scalar Scenario2.node[168].veinsmobility 	minSpeed 	0
scalar Scenario2.node[168].veinsmobility 	maxSpeed 	18.968500454263
scalar Scenario2.node[168].veinsmobility 	totalDistance 	523.20473672205
scalar Scenario2.node[168].veinsmobility 	totalCO2Emission 	132.34195669029
scalar Scenario2.node[9].appl 	generatedWSMs 	1
scalar Scenario2.node[9].appl 	receivedWSMs 	8
scalar Scenario2.node[9].appl 	generatedBSMs 	116
scalar Scenario2.node[9].appl 	receivedBSMs 	13991
scalar Scenario2.node[9].appl 	generatedWSAs 	0
scalar Scenario2.node[9].appl 	receivedWSAs 	0
scalar Scenario2.node[9].appl 	delayWSM 	0.00023690209
scalar Scenario2.node[9].appl 	Dist_Propa 	127.84485667674
scalar Scenario2.node[9].nic.phy80211p 	busyTime 	0.025571448275869
scalar Scenario2.node[9].nic.phy80211p 	ncollisions 	91
scalar Scenario2.node[9].nic.mac1609_4 	ReceivedUnicastPackets 	0
scalar Scenario2.node[9].nic.mac1609_4 	ReceivedBroadcasts 	13999
scalar Scenario2.node[9].nic.mac1609_4 	SentPackets 	117
scalar Scenario2.node[9].nic.mac1609_4 	SNIRLostPackets 	214
scalar Scenario2.node[9].nic.mac1609_4 	RXTXLostPackets 	153
scalar Scenario2.node[9].nic.mac1609_4 	TotalLostPackets 	367
scalar Scenario2.node[9].nic.mac1609_4 	DroppedPacketsInMac 	0
scalar Scenario2.node[9].nic.mac1609_4 	TooLittleTime 	0
scalar Scenario2.node[9].nic.mac1609_4 	TimesIntoBackoff 	117
scalar Scenario2.node[9].nic.mac1609_4 	SlotsBackoff 	193
scalar Scenario2.node[9].nic.mac1609_4 	NumInternalContention 	0
scalar Scenario2.node[9].nic.mac1609_4 	totalBusyTime 	1.479309218406
scalar Scenario2.node[9].veinsmobility 	startTime 	1
scalar Scenario2.node[9].veinsmobility 	totalTime 	57
scalar Scenario2.node[9].veinsmobility 	stopTime 	59
scalar Scenario2.node[9].veinsmobility 	minSpeed 	3.932047590691
scalar Scenario2.node[9].veinsmobility 	maxSpeed 	18.958448226
scalar Scenario2.node[9].veinsmobility 	totalDistance 	820.05985265805
scalar Scenario2.node[9].veinsmobility 	totalCO2Emission 	196.30053678776
scalar Scenario2.node[156].appl 	generatedWSMs 	1
scalar Scenario2.node[156].appl 	receivedWSMs 	7
scalar Scenario2.node[156].appl 	generatedBSMs 	84
scalar Scenario2.node[156].appl 	receivedBSMs 	11244
scalar Scenario2.node[156].appl 	generatedWSAs 	0
scalar Scenario2.node[156].appl 	receivedWSAs 	0
scalar Scenario2.node[156].appl 	delayWSM 	0.000236854015
scalar Scenario2.node[156].appl 	Dist_Propa 	60.028557537031
scalar Scenario2.node[156].nic.phy80211p 	busyTime 	0.028476952380956
scalar Scenario2.node[156].nic.phy80211p 	ncollisions 	91
scalar Scenario2.node[156].nic.mac1609_4 	ReceivedUnicastPackets 	0
scalar Scenario2.node[156].nic.mac1609_4 	ReceivedBroadcasts 	11251
[...]
scalar Scenario2.node[251].nic.mac1609_4 	RXTXLostPackets 	0
scalar Scenario2.node[251].nic.mac1609_4 	TotalLostPackets 	0
scalar Scenario2.node[251].nic.mac1609_4 	DroppedPacketsInMac 	0
scalar Scenario2.node[251].nic.mac1609_4 	TooLittleTime 	0
scalar Scenario2.node[251].nic.mac1609_4 	TimesIntoBackoff 	14
scalar Scenario2.node[251].nic.mac1609_4 	SlotsBackoff 	21
scalar Scenario2.node[251].nic.mac1609_4 	NumInternalContention 	0
scalar Scenario2.node[251].nic.mac1609_4 	totalBusyTime 	0.030382
scalar Scenario2.node[251].veinsmobility 	startTime 	53
scalar Scenario2.node[251].veinsmobility 	totalTime 	7
scalar Scenario2.node[251].veinsmobility 	stopTime 	60
scalar Scenario2.node[251].veinsmobility 	minSpeed 	3.3749732255289
scalar Scenario2.node[251].veinsmobility 	maxSpeed 	14.969494598986
scalar Scenario2.node[251].veinsmobility 	totalDistance 	58.638704761298
scalar Scenario2.node[251].veinsmobility 	totalCO2Emission 	38.710387034317
scalar Scenario2.node[254].appl 	generatedWSMs 	0
scalar Scenario2.node[254].appl 	receivedWSMs 	0
scalar Scenario2.node[254].appl 	generatedBSMs 	10
scalar Scenario2.node[254].appl 	receivedBSMs 	188
scalar Scenario2.node[254].appl 	generatedWSAs 	0
scalar Scenario2.node[254].appl 	receivedWSAs 	0
scalar Scenario2.node[254].appl 	delayWSM 	-1
scalar Scenario2.node[254].appl 	Dist_Propa 	-1
scalar Scenario2.node[254].nic.phy80211p 	busyTime 	0.0039104
scalar Scenario2.node[254].nic.phy80211p 	ncollisions 	0
scalar Scenario2.node[254].nic.mac1609_4 	ReceivedUnicastPackets 	0
scalar Scenario2.node[254].nic.mac1609_4 	ReceivedBroadcasts 	188
scalar Scenario2.node[254].nic.mac1609_4 	SentPackets 	10
scalar Scenario2.node[254].nic.mac1609_4 	SNIRLostPackets 	0
scalar Scenario2.node[254].nic.mac1609_4 	RXTXLostPackets 	0
scalar Scenario2.node[254].nic.mac1609_4 	TotalLostPackets 	0
scalar Scenario2.node[254].nic.mac1609_4 	DroppedPacketsInMac 	0
scalar Scenario2.node[254].nic.mac1609_4 	TooLittleTime 	0
scalar Scenario2.node[254].nic.mac1609_4 	TimesIntoBackoff 	10
scalar Scenario2.node[254].nic.mac1609_4 	SlotsBackoff 	11
scalar Scenario2.node[254].nic.mac1609_4 	NumInternalContention 	0
scalar Scenario2.node[254].nic.mac1609_4 	totalBusyTime 	0.020602
scalar Scenario2.node[254].veinsmobility 	startTime 	55
scalar Scenario2.node[254].veinsmobility 	totalTime 	5
scalar Scenario2.node[254].veinsmobility 	stopTime 	60
scalar Scenario2.node[254].veinsmobility 	minSpeed 	4.1467374746261
scalar Scenario2.node[254].veinsmobility 	maxSpeed 	11.606694836134
scalar Scenario2.node[254].veinsmobility 	totalDistance 	34.638113438887
scalar Scenario2.node[254].veinsmobility 	totalCO2Emission 	22.250403430648
scalar Scenario2.node[255].appl 	generatedWSMs 	0
scalar Scenario2.node[255].appl 	receivedWSMs 	0
scalar Scenario2.node[255].appl 	generatedBSMs 	8
scalar Scenario2.node[255].appl 	receivedBSMs 	150
scalar Scenario2.node[255].appl 	generatedWSAs 	0
scalar Scenario2.node[255].appl 	receivedWSAs 	0
scalar Scenario2.node[255].appl 	delayWSM 	-1
scalar Scenario2.node[255].appl 	Dist_Propa 	-1
scalar Scenario2.node[255].nic.phy80211p 	busyTime 	0.0039
scalar Scenario2.node[255].nic.phy80211p 	ncollisions 	0
scalar Scenario2.node[255].nic.mac1609_4 	ReceivedUnicastPackets 	0
scalar Scenario2.node[255].nic.mac1609_4 	ReceivedBroadcasts 	150
scalar Scenario2.node[255].nic.mac1609_4 	SentPackets 	8
scalar Scenario2.node[255].nic.mac1609_4 	SNIRLostPackets 	0
scalar Scenario2.node[255].nic.mac1609_4 	RXTXLostPackets 	0
scalar Scenario2.node[255].nic.mac1609_4 	TotalLostPackets 	0
scalar Scenario2.node[255].nic.mac1609_4 	DroppedPacketsInMac 	0
scalar Scenario2.node[255].nic.mac1609_4 	TooLittleTime 	0
scalar Scenario2.node[255].nic.mac1609_4 	TimesIntoBackoff 	8
scalar Scenario2.node[255].nic.mac1609_4 	SlotsBackoff 	2
scalar Scenario2.node[255].nic.mac1609_4 	NumInternalContention 	0
scalar Scenario2.node[255].nic.mac1609_4 	totalBusyTime 	0.01644
scalar Scenario2.node[255].veinsmobility 	startTime 	56
scalar Scenario2.node[255].veinsmobility 	totalTime 	4
scalar Scenario2.node[255].veinsmobility 	stopTime 	60
scalar Scenario2.node[255].veinsmobility 	minSpeed 	2.4095380588329
scalar Scenario2.node[255].veinsmobility 	maxSpeed 	8.1382013312156
scalar Scenario2.node[255].veinsmobility 	totalDistance 	17.782100549166
scalar Scenario2.node[255].veinsmobility 	totalCO2Emission 	12.921392037435
scalar Scenario2.node[258].appl 	generatedWSMs 	0
scalar Scenario2.node[258].appl 	receivedWSMs 	0
scalar Scenario2.node[258].appl 	generatedBSMs 	4
scalar Scenario2.node[258].appl 	receivedBSMs 	70
scalar Scenario2.node[258].appl 	generatedWSAs 	0
scalar Scenario2.node[258].appl 	receivedWSAs 	0
scalar Scenario2.node[258].appl 	delayWSM 	-1
scalar Scenario2.node[258].appl 	Dist_Propa 	-1
scalar Scenario2.node[258].nic.phy80211p 	busyTime 	0.00364
scalar Scenario2.node[258].nic.phy80211p 	ncollisions 	0
scalar Scenario2.node[258].nic.mac1609_4 	ReceivedUnicastPackets 	0
scalar Scenario2.node[258].nic.mac1609_4 	ReceivedBroadcasts 	70
scalar Scenario2.node[258].nic.mac1609_4 	SentPackets 	4
scalar Scenario2.node[258].nic.mac1609_4 	SNIRLostPackets 	0
scalar Scenario2.node[258].nic.mac1609_4 	RXTXLostPackets 	0
scalar Scenario2.node[258].nic.mac1609_4 	TotalLostPackets 	0
scalar Scenario2.node[258].nic.mac1609_4 	DroppedPacketsInMac 	0
scalar Scenario2.node[258].nic.mac1609_4 	TooLittleTime 	0
scalar Scenario2.node[258].nic.mac1609_4 	TimesIntoBackoff 	4
scalar Scenario2.node[258].nic.mac1609_4 	SlotsBackoff 	4
scalar Scenario2.node[258].nic.mac1609_4 	NumInternalContention 	0
scalar Scenario2.node[258].nic.mac1609_4 	totalBusyTime 	0.0077
scalar Scenario2.node[258].veinsmobility 	startTime 	58
scalar Scenario2.node[258].veinsmobility 	totalTime 	2
scalar Scenario2.node[258].veinsmobility 	stopTime 	60
scalar Scenario2.node[258].veinsmobility 	minSpeed 	2.7294526099854
scalar Scenario2.node[258].veinsmobility 	maxSpeed 	4.5797816218155
scalar Scenario2.node[258].veinsmobility 	totalDistance 	5.6359190073888
scalar Scenario2.node[258].veinsmobility 	totalCO2Emission 	3.3820611870713
scalar Scenario2.node[130].appl 	generatedWSMs 	1
scalar Scenario2.node[130].appl 	receivedWSMs 	9
scalar Scenario2.node[130].appl 	generatedBSMs 	96
scalar Scenario2.node[130].appl 	receivedBSMs 	12472
scalar Scenario2.node[130].appl 	generatedWSAs 	0
scalar Scenario2.node[130].appl 	receivedWSAs 	0
scalar Scenario2.node[130].appl 	delayWSM 	0.030481494047
scalar Scenario2.node[130].appl 	Dist_Propa 	322.06479956526
scalar Scenario2.node[130].nic.phy80211p 	busyTime 	0.027839333333339
scalar Scenario2.node[130].nic.phy80211p 	ncollisions 	43
scalar Scenario2.node[130].nic.mac1609_4 	ReceivedUnicastPackets 	0
scalar Scenario2.node[130].nic.mac1609_4 	ReceivedBroadcasts 	12481
scalar Scenario2.node[130].nic.mac1609_4 	SentPackets 	97
scalar Scenario2.node[130].nic.mac1609_4 	SNIRLostPackets 	187
scalar Scenario2.node[130].nic.mac1609_4 	RXTXLostPackets 	1
scalar Scenario2.node[130].nic.mac1609_4 	TotalLostPackets 	188
scalar Scenario2.node[130].nic.mac1609_4 	DroppedPacketsInMac 	0
scalar Scenario2.node[130].nic.mac1609_4 	TooLittleTime 	0
scalar Scenario2.node[130].nic.mac1609_4 	TimesIntoBackoff 	98
scalar Scenario2.node[130].nic.mac1609_4 	SlotsBackoff 	159
scalar Scenario2.node[130].nic.mac1609_4 	NumInternalContention 	0
scalar Scenario2.node[130].nic.mac1609_4 	totalBusyTime 	1.31434528935
scalar Scenario2.node[130].veinsmobility 	startTime 	12
scalar Scenario2.node[130].veinsmobility 	totalTime 	48
scalar Scenario2.node[130].veinsmobility 	stopTime 	60
scalar Scenario2.node[130].veinsmobility 	minSpeed 	3.257133028099
scalar Scenario2.node[130].veinsmobility 	maxSpeed 	18.999128500514
scalar Scenario2.node[130].veinsmobility 	totalDistance 	661.78815505913
scalar Scenario2.node[130].veinsmobility 	totalCO2Emission 	179.96048440599
scalar Scenario2.node[262].appl 	generatedWSMs 	0
scalar Scenario2.node[262].appl 	receivedWSMs 	0
scalar Scenario2.node[262].appl 	generatedBSMs 	0
scalar Scenario2.node[262].appl 	receivedBSMs 	0
scalar Scenario2.node[262].appl 	generatedWSAs 	0
scalar Scenario2.node[262].appl 	receivedWSAs 	0
scalar Scenario2.node[262].appl 	delayWSM 	-1
scalar Scenario2.node[262].appl 	Dist_Propa 	-1
scalar Scenario2.node[262].nic.phy80211p 	busyTime 	-nan
scalar Scenario2.node[262].nic.phy80211p 	ncollisions 	0
scalar Scenario2.node[262].nic.mac1609_4 	ReceivedUnicastPackets 	0
scalar Scenario2.node[262].nic.mac1609_4 	ReceivedBroadcasts 	0
scalar Scenario2.node[262].nic.mac1609_4 	SentPackets 	0
scalar Scenario2.node[262].nic.mac1609_4 	SNIRLostPackets 	0
scalar Scenario2.node[262].nic.mac1609_4 	RXTXLostPackets 	0
scalar Scenario2.node[262].nic.mac1609_4 	TotalLostPackets 	0
scalar Scenario2.node[262].nic.mac1609_4 	DroppedPacketsInMac 	0
scalar Scenario2.node[262].nic.mac1609_4 	TooLittleTime 	0
scalar Scenario2.node[262].nic.mac1609_4 	TimesIntoBackoff 	0
scalar Scenario2.node[262].nic.mac1609_4 	SlotsBackoff 	0
scalar Scenario2.node[262].nic.mac1609_4 	NumInternalContention 	0
scalar Scenario2.node[262].nic.mac1609_4 	totalBusyTime 	0
scalar Scenario2.node[262].veinsmobility 	startTime 	60
scalar Scenario2.node[262].veinsmobility 	totalTime 	0
scalar Scenario2.node[262].veinsmobility 	stopTime 	60
scalar Scenario2.node[262].veinsmobility 	totalDistance 	0
scalar Scenario2.node[262].veinsmobility 	totalCO2Emission 	0
scalar Scenario2.node[136].appl 	generatedWSMs 	1
scalar Scenario2.node[136].appl 	receivedWSMs 	8
scalar Scenario2.node[136].appl 	generatedBSMs 	92
scalar Scenario2.node[136].appl 	receivedBSMs 	11908
scalar Scenario2.node[136].appl 	generatedWSAs 	0
scalar Scenario2.node[136].appl 	receivedWSAs 	0
scalar Scenario2.node[136].appl 	delayWSM 	0.030481601244
scalar Scenario2.node[136].appl 	Dist_Propa 	353.29252964195
scalar Scenario2.node[136].nic.phy80211p 	busyTime 	0.027687652173918
scalar Scenario2.node[136].nic.phy80211p 	ncollisions 	40
scalar Scenario2.node[136].nic.mac1609_4 	ReceivedUnicastPackets 	0
scalar Scenario2.node[136].nic.mac1609_4 	ReceivedBroadcasts 	11916
scalar Scenario2.node[136].nic.mac1609_4 	SentPackets 	93
scalar Scenario2.node[136].nic.mac1609_4 	SNIRLostPackets 	168
scalar Scenario2.node[136].nic.mac1609_4 	RXTXLostPackets 	0
scalar Scenario2.node[136].nic.mac1609_4 	TotalLostPackets 	168
scalar Scenario2.node[136].nic.mac1609_4 	DroppedPacketsInMac 	0
scalar Scenario2.node[136].nic.mac1609_4 	TooLittleTime 	0
scalar Scenario2.node[136].nic.mac1609_4 	TimesIntoBackoff 	93
scalar Scenario2.node[136].nic.mac1609_4 	SlotsBackoff 	147
scalar Scenario2.node[136].nic.mac1609_4 	NumInternalContention 	0
scalar Scenario2.node[136].nic.mac1609_4 	totalBusyTime 	1.254853079148
scalar Scenario2.node[136].veinsmobility 	startTime 	14
scalar Scenario2.node[136].veinsmobility 	totalTime 	46
scalar Scenario2.node[136].veinsmobility 	stopTime 	60
scalar Scenario2.node[136].veinsmobility 	minSpeed 	3.4777492481221
scalar Scenario2.node[136].veinsmobility 	maxSpeed 	18.986348388898
scalar Scenario2.node[136].veinsmobility 	totalDistance 	641.93276437025
scalar Scenario2.node[136].veinsmobility 	totalCO2Emission 	170.05792350486
scalar Scenario2.node[154].appl 	generatedWSMs 	1
scalar Scenario2.node[154].appl 	receivedWSMs 	7
scalar Scenario2.node[154].appl 	generatedBSMs 	88
scalar Scenario2.node[154].appl 	receivedBSMs 	11343
scalar Scenario2.node[154].appl 	generatedWSAs 	0
scalar Scenario2.node[154].appl 	receivedWSAs 	0
scalar Scenario2.node[154].appl 	delayWSM 	0.030481704221
scalar Scenario2.node[154].appl 	Dist_Propa 	388.61747604511
scalar Scenario2.node[154].nic.phy80211p 	busyTime 	0.02753763636364
scalar Scenario2.node[154].nic.phy80211p 	ncollisions 	48
scalar Scenario2.node[154].nic.mac1609_4 	ReceivedUnicastPackets 	0
scalar Scenario2.node[154].nic.mac1609_4 	ReceivedBroadcasts 	11350
scalar Scenario2.node[154].nic.mac1609_4 	SentPackets 	89
scalar Scenario2.node[154].nic.mac1609_4 	SNIRLostPackets 	159
scalar Scenario2.node[154].nic.mac1609_4 	RXTXLostPackets 	0
scalar Scenario2.node[154].nic.mac1609_4 	TotalLostPackets 	159
scalar Scenario2.node[154].nic.mac1609_4 	DroppedPacketsInMac 	0
scalar Scenario2.node[154].nic.mac1609_4 	TooLittleTime 	0
scalar Scenario2.node[154].nic.mac1609_4 	TimesIntoBackoff 	89
scalar Scenario2.node[154].nic.mac1609_4 	SlotsBackoff 	137
scalar Scenario2.node[154].nic.mac1609_4 	NumInternalContention 	0
scalar Scenario2.node[154].nic.mac1609_4 	totalBusyTime 	1.196273000851
scalar Scenario2.node[154].veinsmobility 	startTime 	16
scalar Scenario2.node[154].veinsmobility 	totalTime 	44
scalar Scenario2.node[154].veinsmobility 	stopTime 	60
scalar Scenario2.node[154].veinsmobility 	minSpeed 	4.2176943966643
scalar Scenario2.node[154].veinsmobility 	maxSpeed 	18.990893175832
scalar Scenario2.node[154].veinsmobility 	totalDistance 	622.58382803624
scalar Scenario2.node[154].veinsmobility 	totalCO2Emission 	160.43838939463
scalar Scenario2.node[159].appl 	generatedWSMs 	1
scalar Scenario2.node[159].appl 	receivedWSMs 	9
scalar Scenario2.node[159].appl 	generatedBSMs 	86
scalar Scenario2.node[159].appl 	receivedBSMs 	10816
scalar Scenario2.node[159].appl 	generatedWSAs 	0
scalar Scenario2.node[159].appl 	receivedWSAs 	0
scalar Scenario2.node[159].appl 	delayWSM 	0.030481806983
scalar Scenario2.node[159].appl 	Dist_Propa 	421.83069696898
scalar Scenario2.node[159].nic.phy80211p 	busyTime 	0.026782883720932
scalar Scenario2.node[159].nic.phy80211p 	ncollisions 	43
scalar Scenario2.node[159].nic.mac1609_4 	ReceivedUnicastPackets 	0
scalar Scenario2.node[159].nic.mac1609_4 	ReceivedBroadcasts 	10825
scalar Scenario2.node[159].nic.mac1609_4 	SentPackets 	87
scalar Scenario2.node[159].nic.mac1609_4 	SNIRLostPackets 	133
scalar Scenario2.node[159].nic.mac1609_4 	RXTXLostPackets 	5
scalar Scenario2.node[159].nic.mac1609_4 	TotalLostPackets 	138
scalar Scenario2.node[159].nic.mac1609_4 	DroppedPacketsInMac 	0
scalar Scenario2.node[159].nic.mac1609_4 	TooLittleTime 	0
scalar Scenario2.node[159].nic.mac1609_4 	TimesIntoBackoff 	87
scalar Scenario2.node[159].nic.mac1609_4 	SlotsBackoff 	130
scalar Scenario2.node[159].nic.mac1609_4 	NumInternalContention 	0
scalar Scenario2.node[159].nic.mac1609_4 	totalBusyTime 	1.140943
scalar Scenario2.node[159].veinsmobility 	startTime 	17
scalar Scenario2.node[159].veinsmobility 	totalTime 	43
scalar Scenario2.node[159].veinsmobility 	stopTime 	60
scalar Scenario2.node[159].veinsmobility 	minSpeed 	2.7087925310453
scalar Scenario2.node[159].veinsmobility 	maxSpeed 	18.998727781165
scalar Scenario2.node[159].veinsmobility 	totalDistance 	610.69359653895
scalar Scenario2.node[159].veinsmobility 	totalCO2Emission 	176.20026950234
scalar Scenario2.node[167].appl 	generatedWSMs 	1
scalar Scenario2.node[167].appl 	receivedWSMs 	7
scalar Scenario2.node[167].appl 	generatedBSMs 	82
scalar Scenario2.node[167].appl 	receivedBSMs 	10258
scalar Scenario2.node[167].appl 	generatedWSAs 	0
scalar Scenario2.node[167].appl 	receivedWSAs 	0
scalar Scenario2.node[167].appl 	delayWSM 	0.030481900458
scalar Scenario2.node[167].appl 	Dist_Propa 	450.32524762564
scalar Scenario2.node[167].nic.phy80211p 	busyTime 	0.026623024390245
scalar Scenario2.node[167].nic.phy80211p 	ncollisions 	44
scalar Scenario2.node[167].nic.mac1609_4 	ReceivedUnicastPackets 	0
scalar Scenario2.node[167].nic.mac1609_4 	ReceivedBroadcasts 	10265
scalar Scenario2.node[167].nic.mac1609_4 	SentPackets 	83
scalar Scenario2.node[167].nic.mac1609_4 	SNIRLostPackets 	126
scalar Scenario2.node[167].nic.mac1609_4 	RXTXLostPackets 	1
scalar Scenario2.node[167].nic.mac1609_4 	TotalLostPackets 	127
scalar Scenario2.node[167].nic.mac1609_4 	DroppedPacketsInMac 	0
scalar Scenario2.node[167].nic.mac1609_4 	TooLittleTime 	0
scalar Scenario2.node[167].nic.mac1609_4 	TimesIntoBackoff 	83
scalar Scenario2.node[167].nic.mac1609_4 	SlotsBackoff 	121
scalar Scenario2.node[167].nic.mac1609_4 	NumInternalContention 	0
scalar Scenario2.node[167].nic.mac1609_4 	totalBusyTime 	1.082259
scalar Scenario2.node[167].veinsmobility 	startTime 	19
scalar Scenario2.node[167].veinsmobility 	totalTime 	41
scalar Scenario2.node[167].veinsmobility 	stopTime 	60
scalar Scenario2.node[167].veinsmobility 	minSpeed 	3.3557482195866
scalar Scenario2.node[167].veinsmobility 	maxSpeed 	18.999923923542
scalar Scenario2.node[167].veinsmobility 	totalDistance 	604.47872223042
scalar Scenario2.node[167].veinsmobility 	totalCO2Emission 	148.9181485535
scalar Scenario2.node[175].appl 	generatedWSMs 	1
scalar Scenario2.node[175].appl 	receivedWSMs 	4
scalar Scenario2.node[175].appl 	generatedBSMs 	78
scalar Scenario2.node[175].appl 	receivedBSMs 	9496
scalar Scenario2.node[175].appl 	generatedWSAs 	0
scalar Scenario2.node[175].appl 	receivedWSAs 	0
scalar Scenario2.node[175].appl 	delayWSM 	0.045718688796
scalar Scenario2.node[175].appl 	Dist_Propa 	508.38511555995
scalar Scenario2.node[175].nic.phy80211p 	busyTime 	0.025706666666665
scalar Scenario2.node[175].nic.phy80211p 	ncollisions 	26
scalar Scenario2.node[175].nic.mac1609_4 	ReceivedUnicastPackets 	0
scalar Scenario2.node[175].nic.mac1609_4 	ReceivedBroadcasts 	9500
scalar Scenario2.node[175].nic.mac1609_4 	SentPackets 	79
scalar Scenario2.node[175].nic.mac1609_4 	SNIRLostPackets 	76
scalar Scenario2.node[175].nic.mac1609_4 	RXTXLostPackets 	0
scalar Scenario2.node[175].nic.mac1609_4 	TotalLostPackets 	76
scalar Scenario2.node[175].nic.mac1609_4 	DroppedPacketsInMac 	0
scalar Scenario2.node[175].nic.mac1609_4 	TooLittleTime 	0
scalar Scenario2.node[175].nic.mac1609_4 	TimesIntoBackoff 	79
scalar Scenario2.node[175].nic.mac1609_4 	SlotsBackoff 	100
scalar Scenario2.node[175].nic.mac1609_4 	NumInternalContention 	0
scalar Scenario2.node[175].nic.mac1609_4 	totalBusyTime 	1.000279
scalar Scenario2.node[175].veinsmobility 	startTime 	21
scalar Scenario2.node[175].veinsmobility 	totalTime 	39
scalar Scenario2.node[175].veinsmobility 	stopTime 	60
scalar Scenario2.node[175].veinsmobility 	minSpeed 	3.5815561515633
scalar Scenario2.node[175].veinsmobility 	maxSpeed 	18.991335381207
scalar Scenario2.node[175].veinsmobility 	totalDistance 	585.24651030782
scalar Scenario2.node[175].veinsmobility 	totalCO2Emission 	140.10945338174
scalar Scenario2.node[177].appl 	generatedWSMs 	1
scalar Scenario2.node[177].appl 	receivedWSMs 	5
scalar Scenario2.node[177].appl 	generatedBSMs 	76
scalar Scenario2.node[177].appl 	receivedBSMs 	9024
scalar Scenario2.node[177].appl 	generatedWSAs 	0
scalar Scenario2.node[177].appl 	receivedWSAs 	0
scalar Scenario2.node[177].appl 	delayWSM 	0.045718776678
scalar Scenario2.node[177].appl 	Dist_Propa 	507.64268501564
scalar Scenario2.node[177].nic.phy80211p 	busyTime 	0.024918736842104
scalar Scenario2.node[177].nic.phy80211p 	ncollisions 	14
scalar Scenario2.node[177].nic.mac1609_4 	ReceivedUnicastPackets 	0
scalar Scenario2.node[177].nic.mac1609_4 	ReceivedBroadcasts 	9029
scalar Scenario2.node[177].nic.mac1609_4 	SentPackets 	77
scalar Scenario2.node[177].nic.mac1609_4 	SNIRLostPackets 	39
scalar Scenario2.node[177].nic.mac1609_4 	RXTXLostPackets 	5
scalar Scenario2.node[177].nic.mac1609_4 	TotalLostPackets 	44
scalar Scenario2.node[177].nic.mac1609_4 	DroppedPacketsInMac 	0
scalar Scenario2.node[177].nic.mac1609_4 	TooLittleTime 	0
scalar Scenario2.node[177].nic.mac1609_4 	TimesIntoBackoff 	77
scalar Scenario2.node[177].nic.mac1609_4 	SlotsBackoff 	117
scalar Scenario2.node[177].nic.mac1609_4 	NumInternalContention 	0
scalar Scenario2.node[177].nic.mac1609_4 	totalBusyTime 	0.949837197858
scalar Scenario2.node[177].veinsmobility 	startTime 	22
scalar Scenario2.node[177].veinsmobility 	totalTime 	38
scalar Scenario2.node[177].veinsmobility 	stopTime 	60
scalar Scenario2.node[177].veinsmobility 	minSpeed 	2.2529883940338
scalar Scenario2.node[177].veinsmobility 	maxSpeed 	18.999875641265
scalar Scenario2.node[177].veinsmobility 	totalDistance 	590.43950862395
scalar Scenario2.node[177].veinsmobility 	totalCO2Emission 	156.81212229586
