file 1654253 1518273887                                         
version 2
run WithoutChSw-TrAD-1-20180210-01:31:53-23398
attr configname WithoutChSw-TrAD
attr datetime 20180210-01:31:53
attr experiment WithoutChSw-TrAD
attr inifile omnetpp.ini
attr iterationvars $0=0.5s
attr iterationvarsf 0.5s-
attr measurement $0=0.5s
attr network Scenario2
attr processid 23398
attr repetition 0
attr replication #0
attr resultdir results
attr runnumber 1
attr seedset 1
param **.coreDebug false
param **.debug false
param *.**.nic.mac1609_4.bitrate 6Mbps
param *.**.nic.mac1609_4.txPower 20mW
param *.**.nic.mac1609_4.useServiceChannel false
param *.**.nic.phy80211p.analogueModels "xmldoc(\"config.xml\")"
param *.**.nic.phy80211p.antenna "xmldoc(\"antenna.xml\", \"/root/Antenna[@id='monopole']\")"
param *.**.nic.phy80211p.collectCollisionStatistics true
param *.**.nic.phy80211p.decider "xmldoc(\"config.xml\")"
param *.**.nic.phy80211p.sensitivity -89dBm
param *.**.nic.phy80211p.thermalNoise -110dBm
param *.**.nic.phy80211p.usePropagationDelay true
param *.**.nic.phy80211p.useThermalNoise true
param *.annotations.draw true
param *.connectionManager.drawMaxIntfDist false
param *.connectionManager.maxInterfDist 2600m
param *.connectionManager.sendDirect true
param *.manager.autoShutdown true
param *.manager.host "\"localhost\""
param *.manager.launchConfig "xmldoc(\"mycross.launchd.xml\")"
param *.manager.port 9999
param *.manager.updateInterval 1s
param *.node[*].appl.TrAD true
param *.node[*].appl.TrAD_Neig 25
param *.node[*].appl.TrAD_R 366
param *.node[*].appl.TrAD_alpha 10
param *.node[*].appl.TrAD_ti 0.005
param *.node[*].appl.beaconInterval 1s
param *.node[*].appl.dataOnSch false
param *.node[*].appl.headerLength "80 bit"
param *.node[*].appl.sendBeacons true
param *.node[*].applType "\"myWaveAppLayer\""
param *.node[*].veinsmobility.x 0
param *.node[*].veinsmobility.y 0
param *.node[*].veinsmobility.z 1.895
param *.node[*].veinsmobilityType.debug true
param *.node[20].appl.Accident_start 30
param *.node[40].veinsmobility.accidentCount 1
param *.node[40].veinsmobility.accidentDuration 40s
param *.node[40].veinsmobility.accidentStart 30s
param *.obstacles.debug false
param *.playgroundSizeX 2500m
param *.playgroundSizeY 2500m
param *.playgroundSizeZ 50m
param *.rsu[*].appl.beaconInterval 0.1s
param *.rsu[*].appl.beaconUserPriority 7
param *.rsu[*].appl.dataOnSch false
param *.rsu[*].appl.dataUserPriority 5
param *.rsu[*].appl.headerLength "80 bit"
param *.rsu[*].appl.sendBeacons false
param *.rsu[*].applType "\"TraCIDemoRSU11p\""
param *.rsu[0].mobility.x 500
param *.rsu[0].mobility.y 500
param *.rsu[0].mobility.z 3

vector 1843  Scenario2.node[0].veinsmobility  posx  ETV
vector 1844  Scenario2.node[0].veinsmobility  posy  ETV
vector 1850  Scenario2.node[1].veinsmobility  posx  ETV
vector 1851  Scenario2.node[1].veinsmobility  posy  ETV
vector 1857  Scenario2.node[2].veinsmobility  posx  ETV
vector 1858  Scenario2.node[2].veinsmobility  posy  ETV
vector 1864  Scenario2.node[3].veinsmobility  posx  ETV
vector 1865  Scenario2.node[3].veinsmobility  posy  ETV
vector 1871  Scenario2.node[4].veinsmobility  posx  ETV
vector 1872  Scenario2.node[4].veinsmobility  posy  ETV
vector 1878  Scenario2.node[5].veinsmobility  posx  ETV
vector 1879  Scenario2.node[5].veinsmobility  posy  ETV
vector 1885  Scenario2.node[6].veinsmobility  posx  ETV
vector 1886  Scenario2.node[6].veinsmobility  posy  ETV
vector 1892  Scenario2.node[7].veinsmobility  posx  ETV
vector 1893  Scenario2.node[7].veinsmobility  posy  ETV
vector 1899  Scenario2.node[8].veinsmobility  posx  ETV
vector 1900  Scenario2.node[8].veinsmobility  posy  ETV
vector 1906  Scenario2.node[9].veinsmobility  posx  ETV
vector 1907  Scenario2.node[9].veinsmobility  posy  ETV
vector 1913  Scenario2.node[10].veinsmobility  posx  ETV
vector 1914  Scenario2.node[10].veinsmobility  posy  ETV
vector 1920  Scenario2.node[11].veinsmobility  posx  ETV
vector 1921  Scenario2.node[11].veinsmobility  posy  ETV
vector 1927  Scenario2.node[12].veinsmobility  posx  ETV
vector 1928  Scenario2.node[12].veinsmobility  posy  ETV
vector 1934  Scenario2.node[13].veinsmobility  posx  ETV
vector 1935  Scenario2.node[13].veinsmobility  posy  ETV
vector 1941  Scenario2.node[14].veinsmobility  posx  ETV
vector 1942  Scenario2.node[14].veinsmobility  posy  ETV
vector 1948  Scenario2.node[15].veinsmobility  posx  ETV
vector 1949  Scenario2.node[15].veinsmobility  posy  ETV
vector 1955  Scenario2.node[16].veinsmobility  posx  ETV
vector 1956  Scenario2.node[16].veinsmobility  posy  ETV
vector 1962  Scenario2.node[17].veinsmobility  posx  ETV
vector 1963  Scenario2.node[17].veinsmobility  posy  ETV
vector 1969  Scenario2.node[18].veinsmobility  posx  ETV
vector 1970  Scenario2.node[18].veinsmobility  posy  ETV
vector 1976  Scenario2.node[19].veinsmobility  posx  ETV
vector 1977  Scenario2.node[19].veinsmobility  posy  ETV
vector 1983  Scenario2.node[20].veinsmobility  posx  ETV
vector 1984  Scenario2.node[20].veinsmobility  posy  ETV
vector 1990  Scenario2.node[21].veinsmobility  posx  ETV
vector 1991  Scenario2.node[21].veinsmobility  posy  ETV
vector 1997  Scenario2.node[22].veinsmobility  posx  ETV
vector 1998  Scenario2.node[22].veinsmobility  posy  ETV
vector 2004  Scenario2.node[23].veinsmobility  posx  ETV
vector 2005  Scenario2.node[23].veinsmobility  posy  ETV
vector 2011  Scenario2.node[24].veinsmobility  posx  ETV
vector 2012  Scenario2.node[24].veinsmobility  posy  ETV
vector 2018  Scenario2.node[25].veinsmobility  posx  ETV
vector 2019  Scenario2.node[25].veinsmobility  posy  ETV
vector 2025  Scenario2.node[26].veinsmobility  posx  ETV
vector 2026  Scenario2.node[26].veinsmobility  posy  ETV
vector 2032  Scenario2.node[27].veinsmobility  posx  ETV
vector 2033  Scenario2.node[27].veinsmobility  posy  ETV
vector 2039  Scenario2.node[28].veinsmobility  posx  ETV
vector 2040  Scenario2.node[28].veinsmobility  posy  ETV
vector 2046  Scenario2.node[29].veinsmobility  posx  ETV
vector 2047  Scenario2.node[29].veinsmobility  posy  ETV
vector 2053  Scenario2.node[30].veinsmobility  posx  ETV
vector 2054  Scenario2.node[30].veinsmobility  posy  ETV
vector 2060  Scenario2.node[31].veinsmobility  posx  ETV
vector 2061  Scenario2.node[31].veinsmobility  posy  ETV
vector 2067  Scenario2.node[32].veinsmobility  posx  ETV
vector 2068  Scenario2.node[32].veinsmobility  posy  ETV
vector 2074  Scenario2.node[33].veinsmobility  posx  ETV
vector 2075  Scenario2.node[33].veinsmobility  posy  ETV
vector 2081  Scenario2.node[34].veinsmobility  posx  ETV
vector 2082  Scenario2.node[34].veinsmobility  posy  ETV
vector 2088  Scenario2.node[35].veinsmobility  posx  ETV
vector 2089  Scenario2.node[35].veinsmobility  posy  ETV
vector 2095  Scenario2.node[36].veinsmobility  posx  ETV
vector 2096  Scenario2.node[36].veinsmobility  posy  ETV
vector 2102  Scenario2.node[37].veinsmobility  posx  ETV
vector 2103  Scenario2.node[37].veinsmobility  posy  ETV
vector 2109  Scenario2.node[38].veinsmobility  posx  ETV
vector 2110  Scenario2.node[38].veinsmobility  posy  ETV
vector 2116  Scenario2.node[39].veinsmobility  posx  ETV
vector 2117  Scenario2.node[39].veinsmobility  posy  ETV
vector 2123  Scenario2.node[40].veinsmobility  posx  ETV
vector 2124  Scenario2.node[40].veinsmobility  posy  ETV
vector 2130  Scenario2.node[41].veinsmobility  posx  ETV
vector 2131  Scenario2.node[41].veinsmobility  posy  ETV
vector 2137  Scenario2.node[42].veinsmobility  posx  ETV
vector 2138  Scenario2.node[42].veinsmobility  posy  ETV
vector 2144  Scenario2.node[43].veinsmobility  posx  ETV
vector 2145  Scenario2.node[43].veinsmobility  posy  ETV
vector 2151  Scenario2.node[44].veinsmobility  posx  ETV
vector 2152  Scenario2.node[44].veinsmobility  posy  ETV
vector 2158  Scenario2.node[45].veinsmobility  posx  ETV
vector 2159  Scenario2.node[45].veinsmobility  posy  ETV
vector 2165  Scenario2.node[46].veinsmobility  posx  ETV
vector 2166  Scenario2.node[46].veinsmobility  posy  ETV
vector 2172  Scenario2.node[47].veinsmobility  posx  ETV
vector 2173  Scenario2.node[47].veinsmobility  posy  ETV
vector 2179  Scenario2.node[48].veinsmobility  posx  ETV
vector 2180  Scenario2.node[48].veinsmobility  posy  ETV
vector 2186  Scenario2.node[49].veinsmobility  posx  ETV
vector 2187  Scenario2.node[49].veinsmobility  posy  ETV
vector 2193  Scenario2.node[50].veinsmobility  posx  ETV
vector 2194  Scenario2.node[50].veinsmobility  posy  ETV
vector 2200  Scenario2.node[51].veinsmobility  posx  ETV
vector 2201  Scenario2.node[51].veinsmobility  posy  ETV
vector 2207  Scenario2.node[52].veinsmobility  posx  ETV
vector 2208  Scenario2.node[52].veinsmobility  posy  ETV
vector 2214  Scenario2.node[53].veinsmobility  posx  ETV
vector 2215  Scenario2.node[53].veinsmobility  posy  ETV
vector 2221  Scenario2.node[54].veinsmobility  posx  ETV
vector 2222  Scenario2.node[54].veinsmobility  posy  ETV
vector 2228  Scenario2.node[55].veinsmobility  posx  ETV
vector 2229  Scenario2.node[55].veinsmobility  posy  ETV
vector 2235  Scenario2.node[56].veinsmobility  posx  ETV
vector 2236  Scenario2.node[56].veinsmobility  posy  ETV
vector 2242  Scenario2.node[57].veinsmobility  posx  ETV
vector 2243  Scenario2.node[57].veinsmobility  posy  ETV
vector 2249  Scenario2.node[58].veinsmobility  posx  ETV
vector 2250  Scenario2.node[58].veinsmobility  posy  ETV
vector 2256  Scenario2.node[59].veinsmobility  posx  ETV
vector 2257  Scenario2.node[59].veinsmobility  posy  ETV
vector 2263  Scenario2.node[60].veinsmobility  posx  ETV
vector 2264  Scenario2.node[60].veinsmobility  posy  ETV
vector 2270  Scenario2.node[61].veinsmobility  posx  ETV
vector 2271  Scenario2.node[61].veinsmobility  posy  ETV
vector 2277  Scenario2.node[62].veinsmobility  posx  ETV
vector 2278  Scenario2.node[62].veinsmobility  posy  ETV
vector 2284  Scenario2.node[63].veinsmobility  posx  ETV
vector 2285  Scenario2.node[63].veinsmobility  posy  ETV
vector 2291  Scenario2.node[64].veinsmobility  posx  ETV
vector 2292  Scenario2.node[64].veinsmobility  posy  ETV
vector 2298  Scenario2.node[65].veinsmobility  posx  ETV
vector 2299  Scenario2.node[65].veinsmobility  posy  ETV
vector 2305  Scenario2.node[66].veinsmobility  posx  ETV
vector 2306  Scenario2.node[66].veinsmobility  posy  ETV
vector 2312  Scenario2.node[67].veinsmobility  posx  ETV
vector 2313  Scenario2.node[67].veinsmobility  posy  ETV
vector 2319  Scenario2.node[68].veinsmobility  posx  ETV
vector 2320  Scenario2.node[68].veinsmobility  posy  ETV
vector 2326  Scenario2.node[69].veinsmobility  posx  ETV
vector 2327  Scenario2.node[69].veinsmobility  posy  ETV
vector 2333  Scenario2.node[70].veinsmobility  posx  ETV
vector 2334  Scenario2.node[70].veinsmobility  posy  ETV
vector 2340  Scenario2.node[71].veinsmobility  posx  ETV
vector 2341  Scenario2.node[71].veinsmobility  posy  ETV
vector 1845  Scenario2.node[0].veinsmobility  speed  ETV
vector 1852  Scenario2.node[1].veinsmobility  speed  ETV
vector 1859  Scenario2.node[2].veinsmobility  speed  ETV
vector 1866  Scenario2.node[3].veinsmobility  speed  ETV
vector 1873  Scenario2.node[4].veinsmobility  speed  ETV
vector 1880  Scenario2.node[5].veinsmobility  speed  ETV
vector 1887  Scenario2.node[6].veinsmobility  speed  ETV
vector 1894  Scenario2.node[7].veinsmobility  speed  ETV
vector 1901  Scenario2.node[8].veinsmobility  speed  ETV
vector 1908  Scenario2.node[9].veinsmobility  speed  ETV
vector 1915  Scenario2.node[10].veinsmobility  speed  ETV
vector 1922  Scenario2.node[11].veinsmobility  speed  ETV
vector 1929  Scenario2.node[12].veinsmobility  speed  ETV
vector 1936  Scenario2.node[13].veinsmobility  speed  ETV
vector 1943  Scenario2.node[14].veinsmobility  speed  ETV
vector 1950  Scenario2.node[15].veinsmobility  speed  ETV
vector 1957  Scenario2.node[16].veinsmobility  speed  ETV
vector 1964  Scenario2.node[17].veinsmobility  speed  ETV
vector 1971  Scenario2.node[18].veinsmobility  speed  ETV
vector 1978  Scenario2.node[19].veinsmobility  speed  ETV
vector 1985  Scenario2.node[20].veinsmobility  speed  ETV
vector 1992  Scenario2.node[21].veinsmobility  speed  ETV
vector 1999  Scenario2.node[22].veinsmobility  speed  ETV
vector 2006  Scenario2.node[23].veinsmobility  speed  ETV
vector 2013  Scenario2.node[24].veinsmobility  speed  ETV
vector 2020  Scenario2.node[25].veinsmobility  speed  ETV
vector 2027  Scenario2.node[26].veinsmobility  speed  ETV
vector 2034  Scenario2.node[27].veinsmobility  speed  ETV
vector 2041  Scenario2.node[28].veinsmobility  speed  ETV
vector 2048  Scenario2.node[29].veinsmobility  speed  ETV
vector 2055  Scenario2.node[30].veinsmobility  speed  ETV
vector 2062  Scenario2.node[31].veinsmobility  speed  ETV
vector 2069  Scenario2.node[32].veinsmobility  speed  ETV
vector 2076  Scenario2.node[33].veinsmobility  speed  ETV
vector 2083  Scenario2.node[34].veinsmobility  speed  ETV
vector 2090  Scenario2.node[35].veinsmobility  speed  ETV
vector 2097  Scenario2.node[36].veinsmobility  speed  ETV
vector 2104  Scenario2.node[37].veinsmobility  speed  ETV
vector 2111  Scenario2.node[38].veinsmobility  speed  ETV
vector 2118  Scenario2.node[39].veinsmobility  speed  ETV
vector 2125  Scenario2.node[40].veinsmobility  speed  ETV
vector 2132  Scenario2.node[41].veinsmobility  speed  ETV
vector 2139  Scenario2.node[42].veinsmobility  speed  ETV
vector 2146  Scenario2.node[43].veinsmobility  speed  ETV
vector 2153  Scenario2.node[44].veinsmobility  speed  ETV
vector 2160  Scenario2.node[45].veinsmobility  speed  ETV
vector 2167  Scenario2.node[46].veinsmobility  speed  ETV
vector 2347  Scenario2.node[72].veinsmobility  posx  ETV
vector 2348  Scenario2.node[72].veinsmobility  posy  ETV
vector 2354  Scenario2.node[73].veinsmobility  posx  ETV
vector 2355  Scenario2.node[73].veinsmobility  posy  ETV
vector 2361  Scenario2.node[74].veinsmobility  posx  ETV
vector 2362  Scenario2.node[74].veinsmobility  posy  ETV
vector 2368  Scenario2.node[75].veinsmobility  posx  ETV
vector 2369  Scenario2.node[75].veinsmobility  posy  ETV
vector 2375  Scenario2.node[76].veinsmobility  posx  ETV
vector 2376  Scenario2.node[76].veinsmobility  posy  ETV
vector 2382  Scenario2.node[77].veinsmobility  posx  ETV
vector 2383  Scenario2.node[77].veinsmobility  posy  ETV
vector 2389  Scenario2.node[78].veinsmobility  posx  ETV
vector 2390  Scenario2.node[78].veinsmobility  posy  ETV
vector 2396  Scenario2.node[79].veinsmobility  posx  ETV
vector 2397  Scenario2.node[79].veinsmobility  posy  ETV
vector 1846  Scenario2.node[0].veinsmobility  acceleration  ETV
vector 1847  Scenario2.node[0].veinsmobility  co2emission  ETV
vector 1853  Scenario2.node[1].veinsmobility  acceleration  ETV
vector 1854  Scenario2.node[1].veinsmobility  co2emission  ETV
vector 1860  Scenario2.node[2].veinsmobility  acceleration  ETV
vector 1861  Scenario2.node[2].veinsmobility  co2emission  ETV
vector 1867  Scenario2.node[3].veinsmobility  acceleration  ETV
vector 1868  Scenario2.node[3].veinsmobility  co2emission  ETV
vector 1874  Scenario2.node[4].veinsmobility  acceleration  ETV
vector 1875  Scenario2.node[4].veinsmobility  co2emission  ETV
vector 1881  Scenario2.node[5].veinsmobility  acceleration  ETV
vector 1882  Scenario2.node[5].veinsmobility  co2emission  ETV
vector 1888  Scenario2.node[6].veinsmobility  acceleration  ETV
vector 1889  Scenario2.node[6].veinsmobility  co2emission  ETV
vector 1895  Scenario2.node[7].veinsmobility  acceleration  ETV
vector 1896  Scenario2.node[7].veinsmobility  co2emission  ETV
vector 1902  Scenario2.node[8].veinsmobility  acceleration  ETV
vector 1903  Scenario2.node[8].veinsmobility  co2emission  ETV
vector 1909  Scenario2.node[9].veinsmobility  acceleration  ETV
vector 1910  Scenario2.node[9].veinsmobility  co2emission  ETV
vector 1916  Scenario2.node[10].veinsmobility  acceleration  ETV
vector 1917  Scenario2.node[10].veinsmobility  co2emission  ETV
vector 1923  Scenario2.node[11].veinsmobility  acceleration  ETV
vector 1924  Scenario2.node[11].veinsmobility  co2emission  ETV
vector 1930  Scenario2.node[12].veinsmobility  acceleration  ETV
vector 1931  Scenario2.node[12].veinsmobility  co2emission  ETV
vector 1937  Scenario2.node[13].veinsmobility  acceleration  ETV
vector 1938  Scenario2.node[13].veinsmobility  co2emission  ETV
vector 1944  Scenario2.node[14].veinsmobility  acceleration  ETV
vector 1945  Scenario2.node[14].veinsmobility  co2emission  ETV
vector 1951  Scenario2.node[15].veinsmobility  acceleration  ETV
vector 1952  Scenario2.node[15].veinsmobility  co2emission  ETV
vector 1958  Scenario2.node[16].veinsmobility  acceleration  ETV
vector 1959  Scenario2.node[16].veinsmobility  co2emission  ETV
vector 1965  Scenario2.node[17].veinsmobility  acceleration  ETV
vector 1966  Scenario2.node[17].veinsmobility  co2emission  ETV
vector 1972  Scenario2.node[18].veinsmobility  acceleration  ETV
vector 1973  Scenario2.node[18].veinsmobility  co2emission  ETV
vector 1979  Scenario2.node[19].veinsmobility  acceleration  ETV
vector 1980  Scenario2.node[19].veinsmobility  co2emission  ETV
vector 1986  Scenario2.node[20].veinsmobility  acceleration  ETV
vector 1987  Scenario2.node[20].veinsmobility  co2emission  ETV
vector 1993  Scenario2.node[21].veinsmobility  acceleration  ETV
vector 1994  Scenario2.node[21].veinsmobility  co2emission  ETV
vector 2000  Scenario2.node[22].veinsmobility  acceleration  ETV
vector 2001  Scenario2.node[22].veinsmobility  co2emission  ETV
vector 2007  Scenario2.node[23].veinsmobility  acceleration  ETV
vector 2008  Scenario2.node[23].veinsmobility  co2emission  ETV
vector 2014  Scenario2.node[24].veinsmobility  acceleration  ETV
vector 2015  Scenario2.node[24].veinsmobility  co2emission  ETV
vector 2021  Scenario2.node[25].veinsmobility  acceleration  ETV
vector 2022  Scenario2.node[25].veinsmobility  co2emission  ETV
vector 2028  Scenario2.node[26].veinsmobility  acceleration  ETV
vector 2029  Scenario2.node[26].veinsmobility  co2emission  ETV
vector 2035  Scenario2.node[27].veinsmobility  acceleration  ETV
vector 2036  Scenario2.node[27].veinsmobility  co2emission  ETV
vector 2042  Scenario2.node[28].veinsmobility  acceleration  ETV
vector 2043  Scenario2.node[28].veinsmobility  co2emission  ETV
vector 2049  Scenario2.node[29].veinsmobility  acceleration  ETV
vector 2050  Scenario2.node[29].veinsmobility  co2emission  ETV
vector 2056  Scenario2.node[30].veinsmobility  acceleration  ETV
vector 2057  Scenario2.node[30].veinsmobility  co2emission  ETV
vector 2063  Scenario2.node[31].veinsmobility  acceleration  ETV
vector 2064  Scenario2.node[31].veinsmobility  co2emission  ETV
vector 2070  Scenario2.node[32].veinsmobility  acceleration  ETV
vector 2071  Scenario2.node[32].veinsmobility  co2emission  ETV
vector 2077  Scenario2.node[33].veinsmobility  acceleration  ETV
vector 2078  Scenario2.node[33].veinsmobility  co2emission  ETV
vector 2084  Scenario2.node[34].veinsmobility  acceleration  ETV
vector 2085  Scenario2.node[34].veinsmobility  co2emission  ETV
vector 2091  Scenario2.node[35].veinsmobility  acceleration  ETV
vector 2092  Scenario2.node[35].veinsmobility  co2emission  ETV
vector 2098  Scenario2.node[36].veinsmobility  acceleration  ETV
vector 2099  Scenario2.node[36].veinsmobility  co2emission  ETV
vector 2105  Scenario2.node[37].veinsmobility  acceleration  ETV
vector 2106  Scenario2.node[37].veinsmobility  co2emission  ETV
vector 2112  Scenario2.node[38].veinsmobility  acceleration  ETV
vector 2113  Scenario2.node[38].veinsmobility  co2emission  ETV
vector 2119  Scenario2.node[39].veinsmobility  acceleration  ETV
vector 2120  Scenario2.node[39].veinsmobility  co2emission  ETV
vector 2126  Scenario2.node[40].veinsmobility  acceleration  ETV
vector 2127  Scenario2.node[40].veinsmobility  co2emission  ETV
vector 2133  Scenario2.node[41].veinsmobility  acceleration  ETV
vector 2134  Scenario2.node[41].veinsmobility  co2emission  ETV
vector 2140  Scenario2.node[42].veinsmobility  acceleration  ETV
vector 2141  Scenario2.node[42].veinsmobility  co2emission  ETV
vector 2147  Scenario2.node[43].veinsmobility  acceleration  ETV
vector 2148  Scenario2.node[43].veinsmobility  co2emission  ETV
vector 2154  Scenario2.node[44].veinsmobility  acceleration  ETV
vector 2155  Scenario2.node[44].veinsmobility  co2emission  ETV
vector 2161  Scenario2.node[45].veinsmobility  acceleration  ETV
vector 2162  Scenario2.node[45].veinsmobility  co2emission  ETV
vector 2168  Scenario2.node[46].veinsmobility  acceleration  ETV
vector 2169  Scenario2.node[46].veinsmobility  co2emission  ETV
vector 2174  Scenario2.node[47].veinsmobility  speed  ETV
vector 2181  Scenario2.node[48].veinsmobility  speed  ETV
vector 2188  Scenario2.node[49].veinsmobility  speed  ETV
vector 2195  Scenario2.node[50].veinsmobility  speed  ETV
vector 2202  Scenario2.node[51].veinsmobility  speed  ETV
vector 2209  Scenario2.node[52].veinsmobility  speed  ETV
vector 2216  Scenario2.node[53].veinsmobility  speed  ETV
vector 2223  Scenario2.node[54].veinsmobility  speed  ETV
vector 2230  Scenario2.node[55].veinsmobility  speed  ETV
vector 2237  Scenario2.node[56].veinsmobility  speed  ETV
vector 2244  Scenario2.node[57].veinsmobility  speed  ETV
vector 2251  Scenario2.node[58].veinsmobility  speed  ETV
vector 2258  Scenario2.node[59].veinsmobility  speed  ETV
vector 2265  Scenario2.node[60].veinsmobility  speed  ETV
vector 2272  Scenario2.node[61].veinsmobility  speed  ETV
vector 2279  Scenario2.node[62].veinsmobility  speed  ETV
vector 2286  Scenario2.node[63].veinsmobility  speed  ETV
vector 2293  Scenario2.node[64].veinsmobility  speed  ETV
vector 2300  Scenario2.node[65].veinsmobility  speed  ETV
vector 2307  Scenario2.node[66].veinsmobility  speed  ETV
vector 2314  Scenario2.node[67].veinsmobility  speed  ETV
vector 2321  Scenario2.node[68].veinsmobility  speed  ETV
vector 2328  Scenario2.node[69].veinsmobility  speed  ETV
vector 2335  Scenario2.node[70].veinsmobility  speed  ETV
vector 2342  Scenario2.node[71].veinsmobility  speed  ETV
vector 2403  Scenario2.node[80].veinsmobility  posx  ETV
vector 2404  Scenario2.node[80].veinsmobility  posy  ETV
vector 2410  Scenario2.node[81].veinsmobility  posx  ETV
vector 2411  Scenario2.node[81].veinsmobility  posy  ETV
vector 2417  Scenario2.node[82].veinsmobility  posx  ETV
vector 2418  Scenario2.node[82].veinsmobility  posy  ETV
vector 2424  Scenario2.node[83].veinsmobility  posx  ETV
vector 2425  Scenario2.node[83].veinsmobility  posy  ETV
vector 2431  Scenario2.node[84].veinsmobility  posx  ETV
vector 2432  Scenario2.node[84].veinsmobility  posy  ETV
vector 2438  Scenario2.node[85].veinsmobility  posx  ETV
vector 2439  Scenario2.node[85].veinsmobility  posy  ETV
vector 2175  Scenario2.node[47].veinsmobility  acceleration  ETV
vector 2176  Scenario2.node[47].veinsmobility  co2emission  ETV
vector 2182  Scenario2.node[48].veinsmobility  acceleration  ETV
vector 2183  Scenario2.node[48].veinsmobility  co2emission  ETV
vector 2189  Scenario2.node[49].veinsmobility  acceleration  ETV
vector 2190  Scenario2.node[49].veinsmobility  co2emission  ETV
vector 2196  Scenario2.node[50].veinsmobility  acceleration  ETV
vector 2197  Scenario2.node[50].veinsmobility  co2emission  ETV
vector 2203  Scenario2.node[51].veinsmobility  acceleration  ETV
vector 2204  Scenario2.node[51].veinsmobility  co2emission  ETV
vector 2210  Scenario2.node[52].veinsmobility  acceleration  ETV
vector 2211  Scenario2.node[52].veinsmobility  co2emission  ETV
vector 2217  Scenario2.node[53].veinsmobility  acceleration  ETV
vector 2218  Scenario2.node[53].veinsmobility  co2emission  ETV
vector 2224  Scenario2.node[54].veinsmobility  acceleration  ETV
vector 2225  Scenario2.node[54].veinsmobility  co2emission  ETV
vector 2231  Scenario2.node[55].veinsmobility  acceleration  ETV
vector 2232  Scenario2.node[55].veinsmobility  co2emission  ETV
vector 2238  Scenario2.node[56].veinsmobility  acceleration  ETV
vector 2239  Scenario2.node[56].veinsmobility  co2emission  ETV
vector 2245  Scenario2.node[57].veinsmobility  acceleration  ETV
vector 2246  Scenario2.node[57].veinsmobility  co2emission  ETV
vector 2252  Scenario2.node[58].veinsmobility  acceleration  ETV
vector 2253  Scenario2.node[58].veinsmobility  co2emission  ETV
vector 2259  Scenario2.node[59].veinsmobility  acceleration  ETV
vector 2260  Scenario2.node[59].veinsmobility  co2emission  ETV
vector 2266  Scenario2.node[60].veinsmobility  acceleration  ETV
vector 2267  Scenario2.node[60].veinsmobility  co2emission  ETV
vector 2273  Scenario2.node[61].veinsmobility  acceleration  ETV
vector 2274  Scenario2.node[61].veinsmobility  co2emission  ETV
vector 2280  Scenario2.node[62].veinsmobility  acceleration  ETV
vector 2281  Scenario2.node[62].veinsmobility  co2emission  ETV
vector 2287  Scenario2.node[63].veinsmobility  acceleration  ETV
vector 2288  Scenario2.node[63].veinsmobility  co2emission  ETV
vector 2294  Scenario2.node[64].veinsmobility  acceleration  ETV
vector 2295  Scenario2.node[64].veinsmobility  co2emission  ETV
vector 2301  Scenario2.node[65].veinsmobility  acceleration  ETV
vector 2302  Scenario2.node[65].veinsmobility  co2emission  ETV
vector 2308  Scenario2.node[66].veinsmobility  acceleration  ETV
vector 2309  Scenario2.node[66].veinsmobility  co2emission  ETV
vector 2315  Scenario2.node[67].veinsmobility  acceleration  ETV
vector 2316  Scenario2.node[67].veinsmobility  co2emission  ETV
vector 2322  Scenario2.node[68].veinsmobility  acceleration  ETV
vector 2323  Scenario2.node[68].veinsmobility  co2emission  ETV
vector 2329  Scenario2.node[69].veinsmobility  acceleration  ETV
vector 2330  Scenario2.node[69].veinsmobility  co2emission  ETV
vector 2336  Scenario2.node[70].veinsmobility  acceleration  ETV
vector 2337  Scenario2.node[70].veinsmobility  co2emission  ETV
vector 2343  Scenario2.node[71].veinsmobility  acceleration  ETV
vector 2344  Scenario2.node[71].veinsmobility  co2emission  ETV
vector 2349  Scenario2.node[72].veinsmobility  speed  ETV
vector 2356  Scenario2.node[73].veinsmobility  speed  ETV
vector 2363  Scenario2.node[74].veinsmobility  speed  ETV
vector 2370  Scenario2.node[75].veinsmobility  speed  ETV
vector 2377  Scenario2.node[76].veinsmobility  speed  ETV
vector 2384  Scenario2.node[77].veinsmobility  speed  ETV
vector 2391  Scenario2.node[78].veinsmobility  speed  ETV
vector 2398  Scenario2.node[79].veinsmobility  speed  ETV
vector 2445  Scenario2.node[86].veinsmobility  posx  ETV
vector 2446  Scenario2.node[86].veinsmobility  posy  ETV
vector 2452  Scenario2.node[87].veinsmobility  posx  ETV
vector 2453  Scenario2.node[87].veinsmobility  posy  ETV
vector 2459  Scenario2.node[88].veinsmobility  posx  ETV
vector 2460  Scenario2.node[88].veinsmobility  posy  ETV
vector 2466  Scenario2.node[89].veinsmobility  posx  ETV
vector 2467  Scenario2.node[89].veinsmobility  posy  ETV
vector 2473  Scenario2.node[90].veinsmobility  posx  ETV
vector 2474  Scenario2.node[90].veinsmobility  posy  ETV
vector 2350  Scenario2.node[72].veinsmobility  acceleration  ETV
vector 2351  Scenario2.node[72].veinsmobility  co2emission  ETV
vector 2357  Scenario2.node[73].veinsmobility  acceleration  ETV
vector 2358  Scenario2.node[73].veinsmobility  co2emission  ETV
vector 2364  Scenario2.node[74].veinsmobility  acceleration  ETV
vector 2365  Scenario2.node[74].veinsmobility  co2emission  ETV
vector 2371  Scenario2.node[75].veinsmobility  acceleration  ETV
vector 2372  Scenario2.node[75].veinsmobility  co2emission  ETV
vector 2378  Scenario2.node[76].veinsmobility  acceleration  ETV
vector 2379  Scenario2.node[76].veinsmobility  co2emission  ETV
vector 2385  Scenario2.node[77].veinsmobility  acceleration  ETV
vector 2386  Scenario2.node[77].veinsmobility  co2emission  ETV
vector 2392  Scenario2.node[78].veinsmobility  acceleration  ETV
vector 2393  Scenario2.node[78].veinsmobility  co2emission  ETV
vector 2399  Scenario2.node[79].veinsmobility  acceleration  ETV
vector 2400  Scenario2.node[79].veinsmobility  co2emission  ETV
vector 2405  Scenario2.node[80].veinsmobility  speed  ETV
vector 2412  Scenario2.node[81].veinsmobility  speed  ETV
vector 2419  Scenario2.node[82].veinsmobility  speed  ETV
vector 2426  Scenario2.node[83].veinsmobility  speed  ETV
vector 2433  Scenario2.node[84].veinsmobility  speed  ETV
vector 2440  Scenario2.node[85].veinsmobility  speed  ETV
vector 2480  Scenario2.node[91].veinsmobility  posx  ETV
vector 2481  Scenario2.node[91].veinsmobility  posy  ETV
vector 2487  Scenario2.node[92].veinsmobility  posx  ETV
vector 2488  Scenario2.node[92].veinsmobility  posy  ETV
vector 2494  Scenario2.node[93].veinsmobility  posx  ETV
vector 2495  Scenario2.node[93].veinsmobility  posy  ETV
vector 2501  Scenario2.node[94].veinsmobility  posx  ETV
vector 2502  Scenario2.node[94].veinsmobility  posy  ETV
vector 2508  Scenario2.node[95].veinsmobility  posx  ETV
vector 2509  Scenario2.node[95].veinsmobility  posy  ETV
vector 2515  Scenario2.node[96].veinsmobility  posx  ETV
vector 2516  Scenario2.node[96].veinsmobility  posy  ETV
vector 2522  Scenario2.node[97].veinsmobility  posx  ETV
vector 2523  Scenario2.node[97].veinsmobility  posy  ETV
vector 2406  Scenario2.node[80].veinsmobility  acceleration  ETV
vector 2407  Scenario2.node[80].veinsmobility  co2emission  ETV
vector 2413  Scenario2.node[81].veinsmobility  acceleration  ETV
vector 2414  Scenario2.node[81].veinsmobility  co2emission  ETV
vector 2420  Scenario2.node[82].veinsmobility  acceleration  ETV
vector 2421  Scenario2.node[82].veinsmobility  co2emission  ETV
vector 2427  Scenario2.node[83].veinsmobility  acceleration  ETV
vector 2428  Scenario2.node[83].veinsmobility  co2emission  ETV
vector 2434  Scenario2.node[84].veinsmobility  acceleration  ETV
vector 2435  Scenario2.node[84].veinsmobility  co2emission  ETV
vector 2441  Scenario2.node[85].veinsmobility  acceleration  ETV
vector 2442  Scenario2.node[85].veinsmobility  co2emission  ETV
vector 2447  Scenario2.node[86].veinsmobility  speed  ETV
vector 2454  Scenario2.node[87].veinsmobility  speed  ETV
vector 2461  Scenario2.node[88].veinsmobility  speed  ETV
vector 2468  Scenario2.node[89].veinsmobility  speed  ETV
vector 2475  Scenario2.node[90].veinsmobility  speed  ETV
vector 2529  Scenario2.node[98].veinsmobility  posx  ETV
vector 2530  Scenario2.node[98].veinsmobility  posy  ETV
vector 2536  Scenario2.node[99].veinsmobility  posx  ETV
vector 2537  Scenario2.node[99].veinsmobility  posy  ETV
vector 2543  Scenario2.node[100].veinsmobility  posx  ETV
vector 2544  Scenario2.node[100].veinsmobility  posy  ETV
vector 2550  Scenario2.node[101].veinsmobility  posx  ETV
vector 2551  Scenario2.node[101].veinsmobility  posy  ETV
vector 2557  Scenario2.node[102].veinsmobility  posx  ETV
vector 2558  Scenario2.node[102].veinsmobility  posy  ETV
vector 2564  Scenario2.node[103].veinsmobility  posx  ETV
vector 2565  Scenario2.node[103].veinsmobility  posy  ETV
vector 2571  Scenario2.node[104].veinsmobility  posx  ETV
vector 2572  Scenario2.node[104].veinsmobility  posy  ETV
vector 2578  Scenario2.node[105].veinsmobility  posx  ETV
vector 2579  Scenario2.node[105].veinsmobility  posy  ETV
vector 2585  Scenario2.node[106].veinsmobility  posx  ETV
vector 2586  Scenario2.node[106].veinsmobility  posy  ETV
vector 2448  Scenario2.node[86].veinsmobility  acceleration  ETV
vector 2449  Scenario2.node[86].veinsmobility  co2emission  ETV
vector 2455  Scenario2.node[87].veinsmobility  acceleration  ETV
vector 2456  Scenario2.node[87].veinsmobility  co2emission  ETV
vector 2462  Scenario2.node[88].veinsmobility  acceleration  ETV
vector 2463  Scenario2.node[88].veinsmobility  co2emission  ETV
vector 2469  Scenario2.node[89].veinsmobility  acceleration  ETV
vector 2470  Scenario2.node[89].veinsmobility  co2emission  ETV
vector 2476  Scenario2.node[90].veinsmobility  acceleration  ETV
vector 2477  Scenario2.node[90].veinsmobility  co2emission  ETV
vector 2482  Scenario2.node[91].veinsmobility  speed  ETV
vector 2489  Scenario2.node[92].veinsmobility  speed  ETV
vector 2496  Scenario2.node[93].veinsmobility  speed  ETV
vector 2503  Scenario2.node[94].veinsmobility  speed  ETV
vector 2510  Scenario2.node[95].veinsmobility  speed  ETV
vector 2517  Scenario2.node[96].veinsmobility  speed  ETV
vector 2524  Scenario2.node[97].veinsmobility  speed  ETV
vector 2592  Scenario2.node[107].veinsmobility  posx  ETV
vector 2593  Scenario2.node[107].veinsmobility  posy  ETV
vector 2599  Scenario2.node[108].veinsmobility  posx  ETV
vector 2600  Scenario2.node[108].veinsmobility  posy  ETV
vector 2606  Scenario2.node[109].veinsmobility  posx  ETV
vector 2607  Scenario2.node[109].veinsmobility  posy  ETV
vector 2613  Scenario2.node[110].veinsmobility  posx  ETV
vector 2614  Scenario2.node[110].veinsmobility  posy  ETV
vector 2620  Scenario2.node[111].veinsmobility  posx  ETV
vector 2621  Scenario2.node[111].veinsmobility  posy  ETV
vector 2627  Scenario2.node[112].veinsmobility  posx  ETV
vector 2628  Scenario2.node[112].veinsmobility  posy  ETV
vector 2634  Scenario2.node[113].veinsmobility  posx  ETV
vector 2635  Scenario2.node[113].veinsmobility  posy  ETV
vector 2641  Scenario2.node[114].veinsmobility  posx  ETV
vector 2642  Scenario2.node[114].veinsmobility  posy  ETV
vector 2483  Scenario2.node[91].veinsmobility  acceleration  ETV
vector 2484  Scenario2.node[91].veinsmobility  co2emission  ETV
vector 2490  Scenario2.node[92].veinsmobility  acceleration  ETV
vector 2491  Scenario2.node[92].veinsmobility  co2emission  ETV
vector 2497  Scenario2.node[93].veinsmobility  acceleration  ETV
vector 2498  Scenario2.node[93].veinsmobility  co2emission  ETV
vector 2504  Scenario2.node[94].veinsmobility  acceleration  ETV
vector 2505  Scenario2.node[94].veinsmobility  co2emission  ETV
vector 2511  Scenario2.node[95].veinsmobility  acceleration  ETV
vector 2512  Scenario2.node[95].veinsmobility  co2emission  ETV
vector 2518  Scenario2.node[96].veinsmobility  acceleration  ETV
vector 2519  Scenario2.node[96].veinsmobility  co2emission  ETV
vector 2525  Scenario2.node[97].veinsmobility  acceleration  ETV
vector 2526  Scenario2.node[97].veinsmobility  co2emission  ETV
vector 2531  Scenario2.node[98].veinsmobility  speed  ETV
vector 2538  Scenario2.node[99].veinsmobility  speed  ETV
vector 2545  Scenario2.node[100].veinsmobility  speed  ETV
vector 2552  Scenario2.node[101].veinsmobility  speed  ETV
vector 2559  Scenario2.node[102].veinsmobility  speed  ETV
vector 2566  Scenario2.node[103].veinsmobility  speed  ETV
vector 2573  Scenario2.node[104].veinsmobility  speed  ETV
vector 2580  Scenario2.node[105].veinsmobility  speed  ETV
vector 2587  Scenario2.node[106].veinsmobility  speed  ETV
vector 2648  Scenario2.node[115].veinsmobility  posx  ETV
vector 2649  Scenario2.node[115].veinsmobility  posy  ETV
vector 2655  Scenario2.node[116].veinsmobility  posx  ETV
vector 2656  Scenario2.node[116].veinsmobility  posy  ETV
vector 2662  Scenario2.node[117].veinsmobility  posx  ETV
vector 2663  Scenario2.node[117].veinsmobility  posy  ETV
vector 2532  Scenario2.node[98].veinsmobility  acceleration  ETV
vector 2533  Scenario2.node[98].veinsmobility  co2emission  ETV
vector 2539  Scenario2.node[99].veinsmobility  acceleration  ETV
vector 2540  Scenario2.node[99].veinsmobility  co2emission  ETV
vector 2546  Scenario2.node[100].veinsmobility  acceleration  ETV
vector 2547  Scenario2.node[100].veinsmobility  co2emission  ETV
vector 2553  Scenario2.node[101].veinsmobility  acceleration  ETV
vector 2554  Scenario2.node[101].veinsmobility  co2emission  ETV
vector 2560  Scenario2.node[102].veinsmobility  acceleration  ETV
vector 2561  Scenario2.node[102].veinsmobility  co2emission  ETV
vector 2567  Scenario2.node[103].veinsmobility  acceleration  ETV
vector 2568  Scenario2.node[103].veinsmobility  co2emission  ETV
vector 2574  Scenario2.node[104].veinsmobility  acceleration  ETV
vector 2575  Scenario2.node[104].veinsmobility  co2emission  ETV
vector 2581  Scenario2.node[105].veinsmobility  acceleration  ETV
vector 2582  Scenario2.node[105].veinsmobility  co2emission  ETV
vector 2588  Scenario2.node[106].veinsmobility  acceleration  ETV
vector 2589  Scenario2.node[106].veinsmobility  co2emission  ETV
vector 2594  Scenario2.node[107].veinsmobility  speed  ETV
vector 2601  Scenario2.node[108].veinsmobility  speed  ETV
vector 2608  Scenario2.node[109].veinsmobility  speed  ETV
vector 2615  Scenario2.node[110].veinsmobility  speed  ETV
vector 2622  Scenario2.node[111].veinsmobility  speed  ETV
vector 2629  Scenario2.node[112].veinsmobility  speed  ETV
vector 2636  Scenario2.node[113].veinsmobility  speed  ETV
vector 2643  Scenario2.node[114].veinsmobility  speed  ETV
vector 2669  Scenario2.node[118].veinsmobility  posx  ETV
vector 2670  Scenario2.node[118].veinsmobility  posy  ETV
vector 2676  Scenario2.node[119].veinsmobility  posx  ETV
vector 2677  Scenario2.node[119].veinsmobility  posy  ETV
vector 2683  Scenario2.node[120].veinsmobility  posx  ETV
vector 2684  Scenario2.node[120].veinsmobility  posy  ETV
vector 2690  Scenario2.node[121].veinsmobility  posx  ETV
vector 2691  Scenario2.node[121].veinsmobility  posy  ETV
vector 2697  Scenario2.node[122].veinsmobility  posx  ETV
vector 2698  Scenario2.node[122].veinsmobility  posy  ETV
vector 2595  Scenario2.node[107].veinsmobility  acceleration  ETV
vector 2596  Scenario2.node[107].veinsmobility  co2emission  ETV
vector 2602  Scenario2.node[108].veinsmobility  acceleration  ETV
vector 2603  Scenario2.node[108].veinsmobility  co2emission  ETV
vector 2609  Scenario2.node[109].veinsmobility  acceleration  ETV
vector 2610  Scenario2.node[109].veinsmobility  co2emission  ETV
vector 2616  Scenario2.node[110].veinsmobility  acceleration  ETV
vector 2617  Scenario2.node[110].veinsmobility  co2emission  ETV
vector 2623  Scenario2.node[111].veinsmobility  acceleration  ETV
vector 2624  Scenario2.node[111].veinsmobility  co2emission  ETV
vector 2630  Scenario2.node[112].veinsmobility  acceleration  ETV
vector 2631  Scenario2.node[112].veinsmobility  co2emission  ETV
vector 2637  Scenario2.node[113].veinsmobility  acceleration  ETV
vector 2638  Scenario2.node[113].veinsmobility  co2emission  ETV
vector 2644  Scenario2.node[114].veinsmobility  acceleration  ETV
vector 2645  Scenario2.node[114].veinsmobility  co2emission  ETV
vector 2650  Scenario2.node[115].veinsmobility  speed  ETV
vector 2657  Scenario2.node[116].veinsmobility  speed  ETV
vector 2664  Scenario2.node[117].veinsmobility  speed  ETV
vector 2704  Scenario2.node[123].veinsmobility  posx  ETV
vector 2705  Scenario2.node[123].veinsmobility  posy  ETV
vector 2711  Scenario2.node[124].veinsmobility  posx  ETV
vector 2712  Scenario2.node[124].veinsmobility  posy  ETV
vector 2718  Scenario2.node[125].veinsmobility  posx  ETV
vector 2719  Scenario2.node[125].veinsmobility  posy  ETV
vector 2725  Scenario2.node[126].veinsmobility  posx  ETV
vector 2726  Scenario2.node[126].veinsmobility  posy  ETV
vector 2651  Scenario2.node[115].veinsmobility  acceleration  ETV
vector 2652  Scenario2.node[115].veinsmobility  co2emission  ETV
vector 2658  Scenario2.node[116].veinsmobility  acceleration  ETV
vector 2659  Scenario2.node[116].veinsmobility  co2emission  ETV
vector 2665  Scenario2.node[117].veinsmobility  acceleration  ETV
vector 2666  Scenario2.node[117].veinsmobility  co2emission  ETV
vector 2671  Scenario2.node[118].veinsmobility  speed  ETV
vector 2678  Scenario2.node[119].veinsmobility  speed  ETV
vector 2685  Scenario2.node[120].veinsmobility  speed  ETV
vector 2692  Scenario2.node[121].veinsmobility  speed  ETV
vector 2699  Scenario2.node[122].veinsmobility  speed  ETV
vector 2732  Scenario2.node[127].veinsmobility  posx  ETV
vector 2733  Scenario2.node[127].veinsmobility  posy  ETV
vector 2739  Scenario2.node[128].veinsmobility  posx  ETV
vector 2740  Scenario2.node[128].veinsmobility  posy  ETV
vector 2746  Scenario2.node[129].veinsmobility  posx  ETV
vector 2747  Scenario2.node[129].veinsmobility  posy  ETV
vector 2753  Scenario2.node[130].veinsmobility  posx  ETV
vector 2754  Scenario2.node[130].veinsmobility  posy  ETV
vector 2672  Scenario2.node[118].veinsmobility  acceleration  ETV
vector 2673  Scenario2.node[118].veinsmobility  co2emission  ETV
vector 2679  Scenario2.node[119].veinsmobility  acceleration  ETV
vector 2680  Scenario2.node[119].veinsmobility  co2emission  ETV
vector 2686  Scenario2.node[120].veinsmobility  acceleration  ETV
vector 2687  Scenario2.node[120].veinsmobility  co2emission  ETV
vector 2693  Scenario2.node[121].veinsmobility  acceleration  ETV
vector 2694  Scenario2.node[121].veinsmobility  co2emission  ETV
vector 2700  Scenario2.node[122].veinsmobility  acceleration  ETV
vector 2701  Scenario2.node[122].veinsmobility  co2emission  ETV
vector 2706  Scenario2.node[123].veinsmobility  speed  ETV
vector 2713  Scenario2.node[124].veinsmobility  speed  ETV
vector 2720  Scenario2.node[125].veinsmobility  speed  ETV
vector 2727  Scenario2.node[126].veinsmobility  speed  ETV
vector 2760  Scenario2.node[131].veinsmobility  posx  ETV
vector 2761  Scenario2.node[131].veinsmobility  posy  ETV
vector 2767  Scenario2.node[132].veinsmobility  posx  ETV
vector 2768  Scenario2.node[132].veinsmobility  posy  ETV
vector 2774  Scenario2.node[133].veinsmobility  posx  ETV
vector 2775  Scenario2.node[133].veinsmobility  posy  ETV
vector 2707  Scenario2.node[123].veinsmobility  acceleration  ETV
vector 2708  Scenario2.node[123].veinsmobility  co2emission  ETV
vector 2714  Scenario2.node[124].veinsmobility  acceleration  ETV
vector 2715  Scenario2.node[124].veinsmobility  co2emission  ETV
vector 2721  Scenario2.node[125].veinsmobility  acceleration  ETV
vector 2722  Scenario2.node[125].veinsmobility  co2emission  ETV
vector 2728  Scenario2.node[126].veinsmobility  acceleration  ETV
vector 2729  Scenario2.node[126].veinsmobility  co2emission  ETV
vector 2734  Scenario2.node[127].veinsmobility  speed  ETV
vector 2741  Scenario2.node[128].veinsmobility  speed  ETV
vector 2748  Scenario2.node[129].veinsmobility  speed  ETV
vector 2755  Scenario2.node[130].veinsmobility  speed  ETV
vector 2781  Scenario2.node[134].veinsmobility  posx  ETV
vector 2782  Scenario2.node[134].veinsmobility  posy  ETV
vector 2788  Scenario2.node[135].veinsmobility  posx  ETV
vector 2789  Scenario2.node[135].veinsmobility  posy  ETV
vector 2795  Scenario2.node[136].veinsmobility  posx  ETV
vector 2796  Scenario2.node[136].veinsmobility  posy  ETV
vector 2735  Scenario2.node[127].veinsmobility  acceleration  ETV
vector 2736  Scenario2.node[127].veinsmobility  co2emission  ETV
vector 2742  Scenario2.node[128].veinsmobility  acceleration  ETV
vector 2743  Scenario2.node[128].veinsmobility  co2emission  ETV
vector 2749  Scenario2.node[129].veinsmobility  acceleration  ETV
vector 2750  Scenario2.node[129].veinsmobility  co2emission  ETV
vector 2756  Scenario2.node[130].veinsmobility  acceleration  ETV
vector 2757  Scenario2.node[130].veinsmobility  co2emission  ETV
vector 2762  Scenario2.node[131].veinsmobility  speed  ETV
vector 2769  Scenario2.node[132].veinsmobility  speed  ETV
vector 2776  Scenario2.node[133].veinsmobility  speed  ETV
vector 2802  Scenario2.node[137].veinsmobility  posx  ETV
vector 2803  Scenario2.node[137].veinsmobility  posy  ETV
vector 2809  Scenario2.node[138].veinsmobility  posx  ETV
vector 2810  Scenario2.node[138].veinsmobility  posy  ETV
vector 2816  Scenario2.node[139].veinsmobility  posx  ETV
vector 2817  Scenario2.node[139].veinsmobility  posy  ETV
vector 2823  Scenario2.node[140].veinsmobility  posx  ETV
vector 2824  Scenario2.node[140].veinsmobility  posy  ETV
vector 2830  Scenario2.node[141].veinsmobility  posx  ETV
vector 2831  Scenario2.node[141].veinsmobility  posy  ETV
vector 2837  Scenario2.node[142].veinsmobility  posx  ETV
vector 2838  Scenario2.node[142].veinsmobility  posy  ETV
vector 2763  Scenario2.node[131].veinsmobility  acceleration  ETV
vector 2764  Scenario2.node[131].veinsmobility  co2emission  ETV
vector 2770  Scenario2.node[132].veinsmobility  acceleration  ETV
vector 2771  Scenario2.node[132].veinsmobility  co2emission  ETV
vector 2777  Scenario2.node[133].veinsmobility  acceleration  ETV
vector 2778  Scenario2.node[133].veinsmobility  co2emission  ETV
vector 2783  Scenario2.node[134].veinsmobility  speed  ETV
vector 2790  Scenario2.node[135].veinsmobility  speed  ETV
vector 2797  Scenario2.node[136].veinsmobility  speed  ETV
vector 2844  Scenario2.node[143].veinsmobility  posx  ETV
vector 2845  Scenario2.node[143].veinsmobility  posy  ETV
vector 2851  Scenario2.node[144].veinsmobility  posx  ETV
vector 2852  Scenario2.node[144].veinsmobility  posy  ETV
vector 2858  Scenario2.node[145].veinsmobility  posx  ETV
vector 2859  Scenario2.node[145].veinsmobility  posy  ETV
vector 2865  Scenario2.node[146].veinsmobility  posx  ETV
vector 2866  Scenario2.node[146].veinsmobility  posy  ETV
vector 2872  Scenario2.node[147].veinsmobility  posx  ETV
vector 2873  Scenario2.node[147].veinsmobility  posy  ETV
vector 2879  Scenario2.node[148].veinsmobility  posx  ETV
vector 2880  Scenario2.node[148].veinsmobility  posy  ETV
vector 2886  Scenario2.node[149].veinsmobility  posx  ETV
vector 2887  Scenario2.node[149].veinsmobility  posy  ETV
vector 2893  Scenario2.node[150].veinsmobility  posx  ETV
vector 2894  Scenario2.node[150].veinsmobility  posy  ETV
vector 2900  Scenario2.node[151].veinsmobility  posx  ETV
vector 2901  Scenario2.node[151].veinsmobility  posy  ETV
vector 2907  Scenario2.node[152].veinsmobility  posx  ETV
vector 2908  Scenario2.node[152].veinsmobility  posy  ETV
vector 2914  Scenario2.node[153].veinsmobility  posx  ETV
vector 2915  Scenario2.node[153].veinsmobility  posy  ETV
vector 2921  Scenario2.node[154].veinsmobility  posx  ETV
vector 2922  Scenario2.node[154].veinsmobility  posy  ETV
vector 2784  Scenario2.node[134].veinsmobility  acceleration  ETV
vector 2785  Scenario2.node[134].veinsmobility  co2emission  ETV
vector 2791  Scenario2.node[135].veinsmobility  acceleration  ETV
vector 2792  Scenario2.node[135].veinsmobility  co2emission  ETV
vector 2798  Scenario2.node[136].veinsmobility  acceleration  ETV
vector 2799  Scenario2.node[136].veinsmobility  co2emission  ETV
vector 2804  Scenario2.node[137].veinsmobility  speed  ETV
vector 2811  Scenario2.node[138].veinsmobility  speed  ETV
vector 2818  Scenario2.node[139].veinsmobility  speed  ETV
vector 2825  Scenario2.node[140].veinsmobility  speed  ETV
vector 2832  Scenario2.node[141].veinsmobility  speed  ETV
vector 2839  Scenario2.node[142].veinsmobility  speed  ETV
vector 2928  Scenario2.node[155].veinsmobility  posx  ETV
vector 2929  Scenario2.node[155].veinsmobility  posy  ETV
vector 2935  Scenario2.node[156].veinsmobility  posx  ETV
vector 2936  Scenario2.node[156].veinsmobility  posy  ETV
vector 2942  Scenario2.node[157].veinsmobility  posx  ETV
vector 2943  Scenario2.node[157].veinsmobility  posy  ETV
vector 2949  Scenario2.node[158].veinsmobility  posx  ETV
vector 2950  Scenario2.node[158].veinsmobility  posy  ETV
vector 2956  Scenario2.node[159].veinsmobility  posx  ETV
vector 2957  Scenario2.node[159].veinsmobility  posy  ETV
vector 2805  Scenario2.node[137].veinsmobility  acceleration  ETV
vector 2806  Scenario2.node[137].veinsmobility  co2emission  ETV
vector 2812  Scenario2.node[138].veinsmobility  acceleration  ETV
vector 2813  Scenario2.node[138].veinsmobility  co2emission  ETV
vector 2819  Scenario2.node[139].veinsmobility  acceleration  ETV
vector 2820  Scenario2.node[139].veinsmobility  co2emission  ETV
vector 2826  Scenario2.node[140].veinsmobility  acceleration  ETV
vector 2827  Scenario2.node[140].veinsmobility  co2emission  ETV
vector 2833  Scenario2.node[141].veinsmobility  acceleration  ETV
vector 2834  Scenario2.node[141].veinsmobility  co2emission  ETV
vector 2840  Scenario2.node[142].veinsmobility  acceleration  ETV
vector 2841  Scenario2.node[142].veinsmobility  co2emission  ETV
vector 2846  Scenario2.node[143].veinsmobility  speed  ETV
vector 2853  Scenario2.node[144].veinsmobility  speed  ETV
vector 2860  Scenario2.node[145].veinsmobility  speed  ETV
vector 2867  Scenario2.node[146].veinsmobility  speed  ETV
vector 2874  Scenario2.node[147].veinsmobility  speed  ETV
vector 2881  Scenario2.node[148].veinsmobility  speed  ETV
vector 2888  Scenario2.node[149].veinsmobility  speed  ETV
vector 2895  Scenario2.node[150].veinsmobility  speed  ETV
vector 2902  Scenario2.node[151].veinsmobility  speed  ETV
vector 2909  Scenario2.node[152].veinsmobility  speed  ETV
vector 2916  Scenario2.node[153].veinsmobility  speed  ETV
vector 2923  Scenario2.node[154].veinsmobility  speed  ETV
vector 2963  Scenario2.node[160].veinsmobility  posx  ETV
vector 2964  Scenario2.node[160].veinsmobility  posy  ETV
vector 2970  Scenario2.node[161].veinsmobility  posx  ETV
vector 2971  Scenario2.node[161].veinsmobility  posy  ETV
vector 2977  Scenario2.node[162].veinsmobility  posx  ETV
vector 2978  Scenario2.node[162].veinsmobility  posy  ETV
vector 2984  Scenario2.node[163].veinsmobility  posx  ETV
vector 2985  Scenario2.node[163].veinsmobility  posy  ETV
vector 2991  Scenario2.node[164].veinsmobility  posx  ETV
vector 2992  Scenario2.node[164].veinsmobility  posy  ETV
vector 2998  Scenario2.node[165].veinsmobility  posx  ETV
vector 2999  Scenario2.node[165].veinsmobility  posy  ETV
vector 2847  Scenario2.node[143].veinsmobility  acceleration  ETV
vector 2848  Scenario2.node[143].veinsmobility  co2emission  ETV
vector 2854  Scenario2.node[144].veinsmobility  acceleration  ETV
vector 2855  Scenario2.node[144].veinsmobility  co2emission  ETV
vector 2861  Scenario2.node[145].veinsmobility  acceleration  ETV
vector 2862  Scenario2.node[145].veinsmobility  co2emission  ETV
vector 2868  Scenario2.node[146].veinsmobility  acceleration  ETV
vector 2869  Scenario2.node[146].veinsmobility  co2emission  ETV
vector 2875  Scenario2.node[147].veinsmobility  acceleration  ETV
vector 2876  Scenario2.node[147].veinsmobility  co2emission  ETV
vector 2882  Scenario2.node[148].veinsmobility  acceleration  ETV
vector 2883  Scenario2.node[148].veinsmobility  co2emission  ETV
vector 2889  Scenario2.node[149].veinsmobility  acceleration  ETV
vector 2890  Scenario2.node[149].veinsmobility  co2emission  ETV
vector 2896  Scenario2.node[150].veinsmobility  acceleration  ETV
vector 2897  Scenario2.node[150].veinsmobility  co2emission  ETV
vector 2903  Scenario2.node[151].veinsmobility  acceleration  ETV
vector 2904  Scenario2.node[151].veinsmobility  co2emission  ETV
vector 2910  Scenario2.node[152].veinsmobility  acceleration  ETV
vector 2911  Scenario2.node[152].veinsmobility  co2emission  ETV
vector 2917  Scenario2.node[153].veinsmobility  acceleration  ETV
vector 2918  Scenario2.node[153].veinsmobility  co2emission  ETV
vector 2924  Scenario2.node[154].veinsmobility  acceleration  ETV
vector 2925  Scenario2.node[154].veinsmobility  co2emission  ETV
vector 2930  Scenario2.node[155].veinsmobility  speed  ETV
vector 2937  Scenario2.node[156].veinsmobility  speed  ETV
vector 2944  Scenario2.node[157].veinsmobility  speed  ETV
vector 2951  Scenario2.node[158].veinsmobility  speed  ETV
vector 2958  Scenario2.node[159].veinsmobility  speed  ETV
vector 3005  Scenario2.node[166].veinsmobility  posx  ETV
vector 3006  Scenario2.node[166].veinsmobility  posy  ETV
vector 3012  Scenario2.node[167].veinsmobility  posx  ETV
vector 3013  Scenario2.node[167].veinsmobility  posy  ETV
vector 2931  Scenario2.node[155].veinsmobility  acceleration  ETV
vector 2932  Scenario2.node[155].veinsmobility  co2emission  ETV
vector 2938  Scenario2.node[156].veinsmobility  acceleration  ETV
vector 2939  Scenario2.node[156].veinsmobility  co2emission  ETV
vector 2945  Scenario2.node[157].veinsmobility  acceleration  ETV
vector 2946  Scenario2.node[157].veinsmobility  co2emission  ETV
vector 2952  Scenario2.node[158].veinsmobility  acceleration  ETV
vector 2953  Scenario2.node[158].veinsmobility  co2emission  ETV
vector 2959  Scenario2.node[159].veinsmobility  acceleration  ETV
vector 2960  Scenario2.node[159].veinsmobility  co2emission  ETV
vector 2965  Scenario2.node[160].veinsmobility  speed  ETV
vector 2972  Scenario2.node[161].veinsmobility  speed  ETV
vector 2979  Scenario2.node[162].veinsmobility  speed  ETV
vector 2986  Scenario2.node[163].veinsmobility  speed  ETV
vector 2993  Scenario2.node[164].veinsmobility  speed  ETV
vector 3000  Scenario2.node[165].veinsmobility  speed  ETV
vector 3019  Scenario2.node[168].veinsmobility  posx  ETV
vector 3020  Scenario2.node[168].veinsmobility  posy  ETV
vector 3026  Scenario2.node[169].veinsmobility  posx  ETV
vector 3027  Scenario2.node[169].veinsmobility  posy  ETV
vector 3033  Scenario2.node[170].veinsmobility  posx  ETV
vector 3034  Scenario2.node[170].veinsmobility  posy  ETV
vector 3040  Scenario2.node[171].veinsmobility  posx  ETV
vector 3041  Scenario2.node[171].veinsmobility  posy  ETV
vector 3047  Scenario2.node[172].veinsmobility  posx  ETV
vector 3048  Scenario2.node[172].veinsmobility  posy  ETV
vector 2966  Scenario2.node[160].veinsmobility  acceleration  ETV
vector 2967  Scenario2.node[160].veinsmobility  co2emission  ETV
vector 2973  Scenario2.node[161].veinsmobility  acceleration  ETV
vector 2974  Scenario2.node[161].veinsmobility  co2emission  ETV
vector 2980  Scenario2.node[162].veinsmobility  acceleration  ETV
vector 2981  Scenario2.node[162].veinsmobility  co2emission  ETV
vector 2987  Scenario2.node[163].veinsmobility  acceleration  ETV
vector 2988  Scenario2.node[163].veinsmobility  co2emission  ETV
vector 2994  Scenario2.node[164].veinsmobility  acceleration  ETV
vector 2995  Scenario2.node[164].veinsmobility  co2emission  ETV
vector 3001  Scenario2.node[165].veinsmobility  acceleration  ETV
vector 3002  Scenario2.node[165].veinsmobility  co2emission  ETV
vector 3007  Scenario2.node[166].veinsmobility  speed  ETV
vector 3014  Scenario2.node[167].veinsmobility  speed  ETV
vector 3054  Scenario2.node[173].veinsmobility  posx  ETV
vector 3055  Scenario2.node[173].veinsmobility  posy  ETV
vector 3061  Scenario2.node[174].veinsmobility  posx  ETV
vector 3062  Scenario2.node[174].veinsmobility  posy  ETV
vector 3068  Scenario2.node[175].veinsmobility  posx  ETV
vector 3069  Scenario2.node[175].veinsmobility  posy  ETV
vector 3008  Scenario2.node[166].veinsmobility  acceleration  ETV
vector 3009  Scenario2.node[166].veinsmobility  co2emission  ETV
vector 3015  Scenario2.node[167].veinsmobility  acceleration  ETV
vector 3016  Scenario2.node[167].veinsmobility  co2emission  ETV
vector 3021  Scenario2.node[168].veinsmobility  speed  ETV
vector 3028  Scenario2.node[169].veinsmobility  speed  ETV
vector 3035  Scenario2.node[170].veinsmobility  speed  ETV
vector 3042  Scenario2.node[171].veinsmobility  speed  ETV
vector 3049  Scenario2.node[172].veinsmobility  speed  ETV
vector 3075  Scenario2.node[176].veinsmobility  posx  ETV
vector 3076  Scenario2.node[176].veinsmobility  posy  ETV
vector 3082  Scenario2.node[177].veinsmobility  posx  ETV
vector 3083  Scenario2.node[177].veinsmobility  posy  ETV
vector 3022  Scenario2.node[168].veinsmobility  acceleration  ETV
vector 3023  Scenario2.node[168].veinsmobility  co2emission  ETV
vector 3029  Scenario2.node[169].veinsmobility  acceleration  ETV
vector 3030  Scenario2.node[169].veinsmobility  co2emission  ETV
vector 3036  Scenario2.node[170].veinsmobility  acceleration  ETV
vector 3037  Scenario2.node[170].veinsmobility  co2emission  ETV
vector 3043  Scenario2.node[171].veinsmobility  acceleration  ETV
vector 3044  Scenario2.node[171].veinsmobility  co2emission  ETV
vector 3050  Scenario2.node[172].veinsmobility  acceleration  ETV
vector 3051  Scenario2.node[172].veinsmobility  co2emission  ETV
vector 3056  Scenario2.node[173].veinsmobility  speed  ETV
vector 3063  Scenario2.node[174].veinsmobility  speed  ETV
vector 3070  Scenario2.node[175].veinsmobility  speed  ETV
vector 3089  Scenario2.node[178].veinsmobility  posx  ETV
vector 3090  Scenario2.node[178].veinsmobility  posy  ETV
vector 3096  Scenario2.node[179].veinsmobility  posx  ETV
vector 3097  Scenario2.node[179].veinsmobility  posy  ETV
vector 3103  Scenario2.node[180].veinsmobility  posx  ETV
vector 3104  Scenario2.node[180].veinsmobility  posy  ETV
vector 3110  Scenario2.node[181].veinsmobility  posx  ETV
vector 3111  Scenario2.node[181].veinsmobility  posy  ETV
vector 3117  Scenario2.node[182].veinsmobility  posx  ETV
vector 3118  Scenario2.node[182].veinsmobility  posy  ETV
vector 3124  Scenario2.node[183].veinsmobility  posx  ETV
vector 3125  Scenario2.node[183].veinsmobility  posy  ETV
vector 3131  Scenario2.node[184].veinsmobility  posx  ETV
vector 3132  Scenario2.node[184].veinsmobility  posy  ETV
vector 3057  Scenario2.node[173].veinsmobility  acceleration  ETV
vector 3058  Scenario2.node[173].veinsmobility  co2emission  ETV
vector 3064  Scenario2.node[174].veinsmobility  acceleration  ETV
vector 3065  Scenario2.node[174].veinsmobility  co2emission  ETV
vector 3071  Scenario2.node[175].veinsmobility  acceleration  ETV
vector 3072  Scenario2.node[175].veinsmobility  co2emission  ETV
vector 3077  Scenario2.node[176].veinsmobility  speed  ETV
vector 3084  Scenario2.node[177].veinsmobility  speed  ETV
vector 3138  Scenario2.node[185].veinsmobility  posx  ETV
vector 3139  Scenario2.node[185].veinsmobility  posy  ETV
vector 3145  Scenario2.node[186].veinsmobility  posx  ETV
vector 3146  Scenario2.node[186].veinsmobility  posy  ETV
vector 3152  Scenario2.node[187].veinsmobility  posx  ETV
vector 3153  Scenario2.node[187].veinsmobility  posy  ETV
vector 3159  Scenario2.node[188].veinsmobility  posx  ETV
vector 3160  Scenario2.node[188].veinsmobility  posy  ETV
vector 3078  Scenario2.node[176].veinsmobility  acceleration  ETV
vector 3079  Scenario2.node[176].veinsmobility  co2emission  ETV
vector 3085  Scenario2.node[177].veinsmobility  acceleration  ETV
vector 3086  Scenario2.node[177].veinsmobility  co2emission  ETV
vector 3091  Scenario2.node[178].veinsmobility  speed  ETV
vector 3098  Scenario2.node[179].veinsmobility  speed  ETV
vector 3105  Scenario2.node[180].veinsmobility  speed  ETV
vector 3112  Scenario2.node[181].veinsmobility  speed  ETV
vector 3119  Scenario2.node[182].veinsmobility  speed  ETV
vector 3126  Scenario2.node[183].veinsmobility  speed  ETV
vector 3133  Scenario2.node[184].veinsmobility  speed  ETV
vector 3166  Scenario2.node[189].veinsmobility  posx  ETV
vector 3167  Scenario2.node[189].veinsmobility  posy  ETV
vector 3173  Scenario2.node[190].veinsmobility  posx  ETV
vector 3174  Scenario2.node[190].veinsmobility  posy  ETV
vector 3180  Scenario2.node[191].veinsmobility  posx  ETV
vector 3181  Scenario2.node[191].veinsmobility  posy  ETV
vector 3092  Scenario2.node[178].veinsmobility  acceleration  ETV
vector 3093  Scenario2.node[178].veinsmobility  co2emission  ETV
vector 3099  Scenario2.node[179].veinsmobility  acceleration  ETV
vector 3100  Scenario2.node[179].veinsmobility  co2emission  ETV
vector 3106  Scenario2.node[180].veinsmobility  acceleration  ETV
vector 3107  Scenario2.node[180].veinsmobility  co2emission  ETV
vector 3113  Scenario2.node[181].veinsmobility  acceleration  ETV
vector 3114  Scenario2.node[181].veinsmobility  co2emission  ETV
vector 3120  Scenario2.node[182].veinsmobility  acceleration  ETV
vector 3121  Scenario2.node[182].veinsmobility  co2emission  ETV
vector 3127  Scenario2.node[183].veinsmobility  acceleration  ETV
vector 3128  Scenario2.node[183].veinsmobility  co2emission  ETV
vector 3134  Scenario2.node[184].veinsmobility  acceleration  ETV
vector 3135  Scenario2.node[184].veinsmobility  co2emission  ETV
vector 3140  Scenario2.node[185].veinsmobility  speed  ETV
vector 3147  Scenario2.node[186].veinsmobility  speed  ETV
vector 3154  Scenario2.node[187].veinsmobility  speed  ETV
vector 3161  Scenario2.node[188].veinsmobility  speed  ETV
vector 3187  Scenario2.node[192].veinsmobility  posx  ETV
vector 3188  Scenario2.node[192].veinsmobility  posy  ETV
vector 3194  Scenario2.node[193].veinsmobility  posx  ETV
vector 3195  Scenario2.node[193].veinsmobility  posy  ETV
vector 3201  Scenario2.node[194].veinsmobility  posx  ETV
vector 3202  Scenario2.node[194].veinsmobility  posy  ETV
vector 3141  Scenario2.node[185].veinsmobility  acceleration  ETV
vector 3142  Scenario2.node[185].veinsmobility  co2emission  ETV
vector 3148  Scenario2.node[186].veinsmobility  acceleration  ETV
vector 3149  Scenario2.node[186].veinsmobility  co2emission  ETV
vector 3155  Scenario2.node[187].veinsmobility  acceleration  ETV
vector 3156  Scenario2.node[187].veinsmobility  co2emission  ETV
vector 3162  Scenario2.node[188].veinsmobility  acceleration  ETV
vector 3163  Scenario2.node[188].veinsmobility  co2emission  ETV
vector 3168  Scenario2.node[189].veinsmobility  speed  ETV
vector 3175  Scenario2.node[190].veinsmobility  speed  ETV
vector 3182  Scenario2.node[191].veinsmobility  speed  ETV
vector 3208  Scenario2.node[195].veinsmobility  posx  ETV
vector 3209  Scenario2.node[195].veinsmobility  posy  ETV
vector 3215  Scenario2.node[196].veinsmobility  posx  ETV
vector 3216  Scenario2.node[196].veinsmobility  posy  ETV
vector 3222  Scenario2.node[197].veinsmobility  posx  ETV
vector 3223  Scenario2.node[197].veinsmobility  posy  ETV
vector 3229  Scenario2.node[198].veinsmobility  posx  ETV
vector 3230  Scenario2.node[198].veinsmobility  posy  ETV
vector 3169  Scenario2.node[189].veinsmobility  acceleration  ETV
vector 3170  Scenario2.node[189].veinsmobility  co2emission  ETV
vector 3176  Scenario2.node[190].veinsmobility  acceleration  ETV
vector 3177  Scenario2.node[190].veinsmobility  co2emission  ETV
vector 3183  Scenario2.node[191].veinsmobility  acceleration  ETV
vector 3184  Scenario2.node[191].veinsmobility  co2emission  ETV
vector 3189  Scenario2.node[192].veinsmobility  speed  ETV
vector 3196  Scenario2.node[193].veinsmobility  speed  ETV
vector 3203  Scenario2.node[194].veinsmobility  speed  ETV
vector 3236  Scenario2.node[199].veinsmobility  posx  ETV
vector 3237  Scenario2.node[199].veinsmobility  posy  ETV
vector 3243  Scenario2.node[200].veinsmobility  posx  ETV
vector 3244  Scenario2.node[200].veinsmobility  posy  ETV
vector 3250  Scenario2.node[201].veinsmobility  posx  ETV
vector 3251  Scenario2.node[201].veinsmobility  posy  ETV
vector 3257  Scenario2.node[202].veinsmobility  posx  ETV
vector 3258  Scenario2.node[202].veinsmobility  posy  ETV
vector 3264  Scenario2.node[203].veinsmobility  posx  ETV
vector 3265  Scenario2.node[203].veinsmobility  posy  ETV
vector 3271  Scenario2.node[204].veinsmobility  posx  ETV
vector 3272  Scenario2.node[204].veinsmobility  posy  ETV
vector 3278  Scenario2.node[205].veinsmobility  posx  ETV
vector 3279  Scenario2.node[205].veinsmobility  posy  ETV
vector 3285  Scenario2.node[206].veinsmobility  posx  ETV
vector 3286  Scenario2.node[206].veinsmobility  posy  ETV
vector 3190  Scenario2.node[192].veinsmobility  acceleration  ETV
vector 3191  Scenario2.node[192].veinsmobility  co2emission  ETV
vector 3197  Scenario2.node[193].veinsmobility  acceleration  ETV
vector 3198  Scenario2.node[193].veinsmobility  co2emission  ETV
vector 3204  Scenario2.node[194].veinsmobility  acceleration  ETV
vector 3205  Scenario2.node[194].veinsmobility  co2emission  ETV
vector 3210  Scenario2.node[195].veinsmobility  speed  ETV
vector 3217  Scenario2.node[196].veinsmobility  speed  ETV
vector 3224  Scenario2.node[197].veinsmobility  speed  ETV
vector 3231  Scenario2.node[198].veinsmobility  speed  ETV
vector 3292  Scenario2.node[207].veinsmobility  posx  ETV
vector 3293  Scenario2.node[207].veinsmobility  posy  ETV
vector 3299  Scenario2.node[208].veinsmobility  posx  ETV
vector 3300  Scenario2.node[208].veinsmobility  posy  ETV
vector 3306  Scenario2.node[209].veinsmobility  posx  ETV
vector 3307  Scenario2.node[209].veinsmobility  posy  ETV
vector 3313  Scenario2.node[210].veinsmobility  posx  ETV
vector 3314  Scenario2.node[210].veinsmobility  posy  ETV
vector 3320  Scenario2.node[211].veinsmobility  posx  ETV
vector 3321  Scenario2.node[211].veinsmobility  posy  ETV
vector 3211  Scenario2.node[195].veinsmobility  acceleration  ETV
vector 3212  Scenario2.node[195].veinsmobility  co2emission  ETV
vector 3218  Scenario2.node[196].veinsmobility  acceleration  ETV
vector 3219  Scenario2.node[196].veinsmobility  co2emission  ETV
vector 3225  Scenario2.node[197].veinsmobility  acceleration  ETV
vector 3226  Scenario2.node[197].veinsmobility  co2emission  ETV
vector 3232  Scenario2.node[198].veinsmobility  acceleration  ETV
vector 3233  Scenario2.node[198].veinsmobility  co2emission  ETV
vector 3238  Scenario2.node[199].veinsmobility  speed  ETV
vector 3245  Scenario2.node[200].veinsmobility  speed  ETV
vector 3252  Scenario2.node[201].veinsmobility  speed  ETV
vector 3259  Scenario2.node[202].veinsmobility  speed  ETV
vector 3266  Scenario2.node[203].veinsmobility  speed  ETV
vector 3273  Scenario2.node[204].veinsmobility  speed  ETV
vector 3280  Scenario2.node[205].veinsmobility  speed  ETV
vector 3287  Scenario2.node[206].veinsmobility  speed  ETV
vector 3327  Scenario2.node[212].veinsmobility  posx  ETV
vector 3328  Scenario2.node[212].veinsmobility  posy  ETV
vector 3239  Scenario2.node[199].veinsmobility  acceleration  ETV
vector 3240  Scenario2.node[199].veinsmobility  co2emission  ETV
vector 3246  Scenario2.node[200].veinsmobility  acceleration  ETV
vector 3247  Scenario2.node[200].veinsmobility  co2emission  ETV
vector 3253  Scenario2.node[201].veinsmobility  acceleration  ETV
vector 3254  Scenario2.node[201].veinsmobility  co2emission  ETV
vector 3260  Scenario2.node[202].veinsmobility  acceleration  ETV
vector 3261  Scenario2.node[202].veinsmobility  co2emission  ETV
vector 3267  Scenario2.node[203].veinsmobility  acceleration  ETV
vector 3268  Scenario2.node[203].veinsmobility  co2emission  ETV
vector 3274  Scenario2.node[204].veinsmobility  acceleration  ETV
vector 3275  Scenario2.node[204].veinsmobility  co2emission  ETV
vector 3281  Scenario2.node[205].veinsmobility  acceleration  ETV
vector 3282  Scenario2.node[205].veinsmobility  co2emission  ETV
vector 3288  Scenario2.node[206].veinsmobility  acceleration  ETV
vector 3289  Scenario2.node[206].veinsmobility  co2emission  ETV
vector 3294  Scenario2.node[207].veinsmobility  speed  ETV
vector 3301  Scenario2.node[208].veinsmobility  speed  ETV
vector 3308  Scenario2.node[209].veinsmobility  speed  ETV
vector 3315  Scenario2.node[210].veinsmobility  speed  ETV
vector 3322  Scenario2.node[211].veinsmobility  speed  ETV
vector 3334  Scenario2.node[213].veinsmobility  posx  ETV
vector 3335  Scenario2.node[213].veinsmobility  posy  ETV
vector 3341  Scenario2.node[214].veinsmobility  posx  ETV
vector 3342  Scenario2.node[214].veinsmobility  posy  ETV
vector 3348  Scenario2.node[215].veinsmobility  posx  ETV
vector 3349  Scenario2.node[215].veinsmobility  posy  ETV
vector 3295  Scenario2.node[207].veinsmobility  acceleration  ETV
vector 3296  Scenario2.node[207].veinsmobility  co2emission  ETV
vector 3302  Scenario2.node[208].veinsmobility  acceleration  ETV
vector 3303  Scenario2.node[208].veinsmobility  co2emission  ETV
vector 3309  Scenario2.node[209].veinsmobility  acceleration  ETV
vector 3310  Scenario2.node[209].veinsmobility  co2emission  ETV
vector 3316  Scenario2.node[210].veinsmobility  acceleration  ETV
vector 3317  Scenario2.node[210].veinsmobility  co2emission  ETV
vector 3323  Scenario2.node[211].veinsmobility  acceleration  ETV
vector 3324  Scenario2.node[211].veinsmobility  co2emission  ETV
vector 3329  Scenario2.node[212].veinsmobility  speed  ETV
vector 3355  Scenario2.node[216].veinsmobility  posx  ETV
vector 3356  Scenario2.node[216].veinsmobility  posy  ETV
vector 3362  Scenario2.node[217].veinsmobility  posx  ETV
vector 3363  Scenario2.node[217].veinsmobility  posy  ETV
vector 3330  Scenario2.node[212].veinsmobility  acceleration  ETV
vector 3331  Scenario2.node[212].veinsmobility  co2emission  ETV
vector 3336  Scenario2.node[213].veinsmobility  speed  ETV
vector 3343  Scenario2.node[214].veinsmobility  speed  ETV
vector 3350  Scenario2.node[215].veinsmobility  speed  ETV
vector 3369  Scenario2.node[218].veinsmobility  posx  ETV
vector 3370  Scenario2.node[218].veinsmobility  posy  ETV
vector 3337  Scenario2.node[213].veinsmobility  acceleration  ETV
vector 3338  Scenario2.node[213].veinsmobility  co2emission  ETV
vector 3344  Scenario2.node[214].veinsmobility  acceleration  ETV
vector 3345  Scenario2.node[214].veinsmobility  co2emission  ETV
vector 3351  Scenario2.node[215].veinsmobility  acceleration  ETV
vector 3352  Scenario2.node[215].veinsmobility  co2emission  ETV
vector 3357  Scenario2.node[216].veinsmobility  speed  ETV
vector 3364  Scenario2.node[217].veinsmobility  speed  ETV
1973	68597 973 72778 8270409 3 33 31 2.2939761026998 10.611316769128 121.58310432878 651.412525883
1972	69570 1029 72778 8270409 3 33 31 -0.076625494612379 1.9882752746646 16.255356606602 30.454294201237
1971	70599 1001 22905 8270409 2 33 32 2.6377290236039 18.998816868074 528.16168835194 9425.7267541393
1970	71600 1026 2 8270409 1 33 33 489.37302299786 990.35963494294 23104.42913812 17053167.859066
1969	72626 750 2 8270409 1 33 33 516.75 523.35 17241.087834322 9007843.4138137
vector 3376  Scenario2.node[219].veinsmobility  posx  ETV
vector 3377  Scenario2.node[219].veinsmobility  posy  ETV
vector 3383  Scenario2.node[220].veinsmobility  posx  ETV
vector 3384  Scenario2.node[220].veinsmobility  posy  ETV
vector 3358  Scenario2.node[216].veinsmobility  acceleration  ETV
vector 3359  Scenario2.node[216].veinsmobility  co2emission  ETV
vector 3365  Scenario2.node[217].veinsmobility  acceleration  ETV
vector 3366  Scenario2.node[217].veinsmobility  co2emission  ETV
vector 3371  Scenario2.node[218].veinsmobility  speed  ETV
2351	73929 946 209120 8736506 5 34 30 2.2490704447112 11.273591646931 118.9178712817 651.52474663897
2350	74875 999 209120 8736506 5 34 30 -0.087316996220036 2.1615680599981 14.802299616725 28.265957762028
2349	75874 975 135403 8736506 4 34 31 4.160416336859 18.998247401568 523.67015305467 9380.1379477492
2348	76849 773 72778 8736506 3 34 32 489.73864672193 523.35 16598.157140703 8612842.0615232
2347	77622 960 72778 8736506 3 34 32 47.735398784356 513.45 10455.837987836 4189337.5751516
vector 3390  Scenario2.node[221].veinsmobility  posx  ETV
vector 3391  Scenario2.node[221].veinsmobility  posy  ETV
vector 3372  Scenario2.node[218].veinsmobility  acceleration  ETV
vector 3373  Scenario2.node[218].veinsmobility  co2emission  ETV
vector 3378  Scenario2.node[219].veinsmobility  speed  ETV
vector 3385  Scenario2.node[220].veinsmobility  speed  ETV
1980	78947 1036 72778 9205652 3 35 33 2.3107264046139 9.6704313836528 125.79905284345 600.73808992195
1979	79983 1085 72778 9205652 3 35 33 -0.07201406288965 2.0794576383522 16.23398004626 26.881353851119
1978	81068 1065 22905 9205652 2 35 34 2.7469869994252 18.980967045685 559.29716991546 9883.4065543873
1977	82133 1091 2 9205652 1 35 35 473.91505634131 1005.4634754785 24449.019989498 18113004.76937
1976	83224 796 2 9205652 1 35 35 516.75 523.35 18283.875921749 9551552.6174407
2414	84020 948 292959 9205652 6 35 30 2.2398763388351 12.224396043371 119.23000791163 670.14717718959
2413	84968 1009 292959 9205652 6 35 30 -0.08830820240313 2.1332784559648 15.988709324027 31.355338969089
2412	85977 977 209120 9205652 5 35 31 2.9169091988617 18.976269957249 512.92545506498 9151.826986769
2411	86954 1005 135403 9205652 4 35 32 513.80113151908 999.61561137021 22988.405326693 17315801.036012
2410	87959 766 135403 9205652 4 35 32 516.76627088818 520.05 16629.089154095 8641488.4286869
vector 3397  Scenario2.node[222].veinsmobility  posx  ETV
vector 3398  Scenario2.node[222].veinsmobility  posy  ETV
vector 3404  Scenario2.node[223].veinsmobility  posx  ETV
vector 3405  Scenario2.node[223].veinsmobility  posy  ETV
vector 3379  Scenario2.node[219].veinsmobility  acceleration  ETV
vector 3380  Scenario2.node[219].veinsmobility  co2emission  ETV
vector 3386  Scenario2.node[220].veinsmobility  acceleration  ETV
vector 3387  Scenario2.node[220].veinsmobility  co2emission  ETV
vector 3392  Scenario2.node[221].veinsmobility  speed  ETV
2078	89278 1058 72778 9673963 3 36 34 0.973 10.808088208676 128.19238520245 682.53054977878
2077	90336 1133 72778 9673963 3 36 34 -0.43889260588949 2.1995541136665 18.196268348232 36.290555141302
2076	91469 1100 22905 9673963 2 36 35 0.7030855698499 18.994416443501 549.28903773106 9760.100100436
2075	92569 1122 2 9673963 1 36 36 478.50692365784 1000.043695413 24765.806598861 18096491.735821
2074	93691 810 2 9673963 1 36 36 513.45 523.35 18782.169998515 9799499.4663526
2015	94501 1048 72778 9673963 3 36 34 0.973 10.029046589042 125.60350843403 626.08617030852
2014	95549 1120 72778 9673963 3 36 34 -1.5480872469249 2.128872625106 16.122873374621 33.417358912058
2013	96669 1097 22905 9673963 2 36 35 2.8351305318164 18.986858689971 527.56754137944 9127.0365865122
2012	97766 1121 2 9673963 1 36 36 495.32224281049 995.83644437273 24892.500043984 18176737.447365
2011	98887 819 2 9673963 1 36 36 516.75 520.05 18694.814420729 9708290.0134894
vector 3411  Scenario2.node[224].veinsmobility  posx  ETV
vector 3412  Scenario2.node[224].veinsmobility  posy  ETV
vector 3393  Scenario2.node[221].veinsmobility  acceleration  ETV
vector 3394  Scenario2.node[221].veinsmobility  co2emission  ETV
vector 3399  Scenario2.node[222].veinsmobility  speed  ETV
vector 3406  Scenario2.node[223].veinsmobility  speed  ETV
2113	100071 1096 72778 10143406 3 37 35 2.0235493079644 10.14627249707 127.13910885386 594.12231068628
2112	101167 1160 72778 10143406 3 37 35 -0.060206022012867 2.0701263908274 15.048863019361 22.393521582911
2111	102327 1132 22905 10143406 2 37 36 3.8436146157379 18.956129539851 577.64324968087 10034.248900425
2110	103459 1155 2 10143406 1 37 37 445.26465031937 996.23022203297 24978.768660961 18026741.434189
2109	104614 834 2 10143406 1 37 37 513.45 523.35 19308.25973435 10076189.065079
2386	105448 1044 209120 10143406 5 37 33 1.2134668584891 11.207461324815 125.29924590028 683.09929147648
2385	106492 1106 209120 10143406 5 37 33 -0.12723060226207 2.2731350618857 16.428806144658 32.101880056691
2384	107598 1071 135403 10143406 4 37 34 2.469303570089 18.989598316788 544.82144622628 9647.5245264172
2383	108669 879 72778 10143406 3 37 35 459.46415430006 523.35 17852.819818128 9124695.0426993
2382	109548 1012 72778 10143406 3 37 35 58.173537966798 513.45 12266.003058261 5135121.8925068
2393	110560 1042 209120 10143406 5 37 33 1.5742295575504 10.155744886331 122.34261446111 583.36748634341
2392	111602 1088 209120 10143406 5 37 33 -0.13170775036702 1.9890212542447 17.240283011969 25.956281629047
2391	112690 1071 135403 10143406 4 37 34 1.6589710813337 18.915644339598 519.14674442824 8989.048294226
2390	113761 1102 72778 10143406 3 37 35 500.43849467808 992.09858819622 24332.355074687 17824816.05558
2389	114863 807 72778 10143406 3 37 35 513.45 520.05 18170.84327417 9433816.268372
vector 3418  Scenario2.node[225].veinsmobility  posx  ETV
vector 3419  Scenario2.node[225].veinsmobility  posy  ETV
vector 3425  Scenario2.node[226].veinsmobility  posx  ETV
vector 3426  Scenario2.node[226].veinsmobility  posy  ETV
vector 3432  Scenario2.node[227].veinsmobility  posx  ETV
vector 3433  Scenario2.node[227].veinsmobility  posy  ETV
vector 3400  Scenario2.node[222].veinsmobility  acceleration  ETV
vector 3401  Scenario2.node[222].veinsmobility  co2emission  ETV
vector 3407  Scenario2.node[223].veinsmobility  acceleration  ETV
vector 3408  Scenario2.node[223].veinsmobility  co2emission  ETV
vector 3413  Scenario2.node[224].veinsmobility  speed  ETV
2008	116339 1114 72778 10609939 3 38 36 0.973 10.09683843159 129.27981560609 628.5233715699
2007	117453 1190 72778 10609939 3 38 36 -1.5831672838246 2.032142864871 15.038989900942 30.604360185406
2006	118643 1164 22905 10609939 2 38 37 3.9197721995389 18.958762100481 560.46306829568 9614.2381020517
2005	119807 963 2 10609939 1 38 38 438.5913538713 523.35 19132.25121458 9668146.8957861
2004	120770 1072 2 10609939 1 38 38 61.993403198165 513.45 13867.711871774 5951722.2809324
2540	121842 953 646761 10609939 9 38 30 2.4010205212608 10.528277928627 118.34030555927 618.8220000453
2539	122795 1000 646761 10609939 9 38 30 -0.048106064041864 2.24128123509 15.522830434407 28.233387938431
2538	123795 984 509515 10609939 8 38 31 3.4495017279335 18.97233216234 511.96808475842 9049.6037388541
2537	124779 1014 391228 10609939 7 38 32 503.32550355904 988.3598504682 22686.241653939 16873527.639648
2536	125793 747 391228 10609939 7 38 32 513.45 520.05 16618.12148471 8630162.3749537
vector 3414  Scenario2.node[224].veinsmobility  acceleration  ETV
vector 3415  Scenario2.node[224].veinsmobility  co2emission  ETV
vector 3420  Scenario2.node[225].veinsmobility  speed  ETV
vector 3427  Scenario2.node[226].veinsmobility  speed  ETV
vector 3434  Scenario2.node[227].veinsmobility  speed  ETV
2148	126848 1125 72778 11077930 3 39 37 0.973 11.762685123926 131.64580719256 682.03719060877
2147	127973 1231 72778 11077930 3 39 37 -2.5414641042698 2.2859905410187 15.172769804636 47.356478949374
2146	129204 1198 22905 11077930 2 39 38 0.93985029414634 18.998235099297 539.67570761088 9299.9995052251
2145	130402 1218 2 11077930 1 39 39 478.13553341236 990.87894008004 26104.703301046 18563696.846338
2144	131620 891 2 11077930 1 39 39 516.75 523.35 20337.178677904 10605468.550002
2526	132511 1018 509515 11077930 8 39 32 2.1548821645973 10.64447818141 124.01651426989 674.46062636608
2525	133529 1083 509515 11077930 8 39 32 -0.10699924176559 2.1241774047189 16.792811666555 32.010125009266
2524	134612 1047 391228 11077930 7 39 33 2.0811592944059 18.985642932095 539.30680759635 9623.1000545223
2523	135659 856 292959 11077930 6 39 34 481.15858410225 526.65 17628.028446683 9148118.6341223
2522	136515 1016 292959 11077930 6 39 34 513.45 991.89594931792 23807.619845313 17529447.5676
vector 3439  Scenario2.node[228].veinsmobility  posx  ETV
vector 3440  Scenario2.node[228].veinsmobility  posy  ETV
vector 3446  Scenario2.node[229].veinsmobility  posx  ETV
vector 3447  Scenario2.node[229].veinsmobility  posy  ETV
vector 3453  Scenario2.node[230].veinsmobility  posx  ETV
vector 3454  Scenario2.node[230].veinsmobility  posy  ETV
vector 3421  Scenario2.node[225].veinsmobility  acceleration  ETV
vector 3422  Scenario2.node[225].veinsmobility  co2emission  ETV
vector 3428  Scenario2.node[226].veinsmobility  acceleration  ETV
vector 3429  Scenario2.node[226].veinsmobility  co2emission  ETV
vector 3435  Scenario2.node[227].veinsmobility  acceleration  ETV
vector 3436  Scenario2.node[227].veinsmobility  co2emission  ETV
2456	138272 1071 391228 11541095 7 40 34 0.973 11.730146060642 127.08622532585 685.47312280459
2455	139343 1140 391228 11541095 7 40 34 -1.2994082433326 2.3706974765414 16.288723867261 35.934338267642
2454	140483 1112 292959 11541095 6 40 35 1.5977305046032 18.996921987447 539.93566274713 9564.2191936176
2453	141595 1140 209120 11541095 5 40 36 489.61711778462 1001.9758815669 24923.857985965 18280175.320425
2452	142735 838 209120 11541095 5 40 36 513.45 520.05 18685.326907784 9698498.332547
2302	143573 1140 135403 11541095 4 40 37 0.973 10.38483031005 129.04066945565 601.83226873629
2301	144713 1227 135403 11541095 4 40 37 -1.0796132272697 1.9225806384071 15.778547594127 30.532381920347
2300	145940 1197 72778 11541095 3 40 38 2.7004654792201 18.952788990605 546.77611218125 9259.679932627
2299	147137 1223 22905 11541095 2 40 39 466.98145321813 987.06624594767 25929.6537866 18351703.841265
2298	148360 890 22905 11541095 2 40 39 513.45 523.35 20339.790522442 10608215.764311
2449	149250 1078 391228 11541095 7 40 34 2.1960229048744 10.03587497245 128.79870530879 622.05459684063
2448	150328 1144 391228 11541095 7 40 34 -0.098007935110264 2.1434570627753 16.111767655784 27.566321194315
2447	151472 1109 292959 11541095 6 40 35 2.8531540664863 18.998548358157 582.03467171388 10347.954982251
2446	152581 917 209120 11541095 5 40 36 433.89056052003 526.65 18262.589993112 9304227.8115084
[...]
3646	1500926 66 20326646 20788434 59 60 2 3.6094779695577 5.1344235134367 8.7439014829944 39.390636028054
3645	1500992 66 20326646 20788434 59 60 2 1.8010333541501 2.0856046769535 3.8866380311036 7.5934680112916
3644	1501058 99 19866240 20788434 58 60 3 3.3552391269021 7.2418771580058 15.75338876596 90.289560269197
3643	1501157 132 19405054 20788434 57 60 4 27.972847543286 34.781546234654 121.13010764333 3699.0506384331
3642	1501289 96 19405054 20788434 57 60 4 513.45 513.45 2053.8 1054523.61
3658	1501385 33 20788434 20788434 60 60 1 3.9308931913638 3.9308931913638 3.9308931913638 15.45192128191
3657	1501418 66 20326646 20788434 59 60 2 28.464278930124 28.464278930124 56.928557860248 1620.4303500238
3656	1501484 48 20326646 20788434 59 60 2 516.75 516.75 1033.5 534061.125
3380	1501532 661 9673963 20788434 36 60 25 0.973 10.258723799424 67.048145121273 378.5117236281
3379	1502193 849 9673963 20788434 36 60 25 -1.78886681656 2.1002793148183 1.3258127316906 42.162758550259
3378	1503042 853 9205652 20788434 35 60 26 2.5433694126463 16.550551838007 215.03799085351 2235.9470355925
3377	1503895 886 8736506 20788434 34 60 27 27.673846837027 238.01719332843 3745.668042002 671841.50084585
3376	1504781 645 8736506 20788434 34 60 27 516.75 520.05 14024.85 7285096.8675
3665	1505426 33 20788434 20788434 60 60 1 3.9106995907333 3.9106995907333 3.9106995907333 15.293571288961
3664	1505459 66 20326646 20788434 59 60 2 28.290708701727 28.290708701727 56.581417403454 1600.728397692
3663	1505525 48 20326646 20788434 59 60 2 513.45 513.45 1026.9 527261.805
3671	1505573 22 20788434 20788434 60 60 1 27.6 27.6 27.6 761.76
3670	1505595 24 20788434 20788434 60 60 1 513.45 513.45 513.45 263630.9025
3387	1505619 660 9673963 20788434 36 60 25 0.973 8.08153278131 58.929243245341 272.85078648635
3386	1506279 851 9673963 20788434 36 60 25 -1.4783479332167 2.01114255097 1.4425738966781 32.94782494084
3385	1507130 854 9205652 20788434 35 60 26 2.5352493333786 14.955510374656 194.95302744973 1775.5660576059
3384	1507984 882 8736506 20788434 34 60 27 27.62483737518 217.35211323521 3445.082705055 559198.12751103
3383	1508866 645 8736506 20788434 34 60 27 513.45 516.75 13932.45 7189427.2275
3401	1509511 599 10609939 20788434 38 60 23 0.973 9.4583746124162 56.075667957616 293.30280826986
3400	1510110 787 10609939 20788434 38 60 23 -1.2393471887612 2.1651902665314 1.1502372081411 33.970909593374
3399	1510897 791 10143406 20788434 37 60 24 2.9288811780718 14.987727418457 187.44713281908 1745.6496269356
3398	1511688 823 9673963 20788434 36 60 25 27.748437279064 209.43205533284 3062.3493425621 476602.79522136
3397	1512511 599 9673963 20788434 36 60 25 516.75 516.75 12918.75 6675764.0625
3408	1513110 618 10609939 20788434 38 60 23 0.973 10.500017583418 68.208297127556 414.42827180307
3407	1513728 777 10609939 20788434 38 60 23 -1.9273027454425 1.9809074431681 1.2552003483259 44.280477074874
3406	1514505 789 10143406 20788434 37 60 24 2.7870496245492 17.35585873596 208.59450665239 2211.8235774008
3405	1515294 820 9673963 20788434 36 60 25 27.676207676268 229.92454708159 3193.8489034458 540842.18982126
3404	1516114 599 9673963 20788434 36 60 25 513.45 520.05 12951.75 6710130.9225
3422	1516713 562 11541095 20788434 40 60 21 0.973 8.6899264417535 57.079009025235 300.98594643235
3421	1517275 717 11541095 20788434 40 60 21 -1.5151500927685 2.1503405884933 1.5291794540032 34.912245689972
3420	1517992 724 11077930 20788434 39 60 22 2.9221501927715 14.821269217066 199.02085549756 2111.3585090331
3419	1518716 754 10609939 20788434 38 60 23 27.84816253734 221.21217103112 2818.7635907539 454895.57049448
3418	1519470 552 10609939 20788434 38 60 23 516.75 520.05 11928.15 6186181.6575
3429	1520022 572 11541095 20788434 40 60 21 0.973 7.879920103034 53.738701446317 247.39858820866
3428	1520594 712 11541095 20788434 40 60 21 -1.6015497487492 2.1940605006902 1.5444184375371 32.149420675391
3427	1521306 725 11077930 20788434 39 60 22 2.8166111444455 14.465104977946 179.3592105805 1700.7368803359
3426	1522031 759 10609939 20788434 38 60 23 27.753283537091 201.00376615936 2565.8125869518 373546.3385363
3425	1522790 552 10609939 20788434 38 60 23 513.45 516.75 11862.15 6117905.3175
3450	1523342 507 12467333 20788434 42 60 19 0.973 9.8758082151876 58.934017010003 358.64128874709
3449	1523849 641 12467333 20788434 42 60 19 -1.4892684867242 2.1211033299705 1.6727448707604 37.462833284121
3448	1524490 658 12007838 20788434 41 60 20 3.366382288223 16.535731052186 190.38703481816 2096.8874268321
3447	1525148 691 11541095 20788434 40 60 21 27.967430395988 211.49768900552 2416.0447607837 367732.92914536
3446	1525839 504 11541095 20788434 40 60 21 516.75 520.05 10901.25 5658963.4125
2589	1526343 1560 646761 20788434 9 60 52 0.973 11.446003369947 205.61010314064 1282.9412327222
2588	1527903 1732 646761 20788434 9 60 52 -3.8675052254763 2.1078559235763 16.081761781731 133.23289614303
2587	1529635 1705 509515 20788434 8 60 53 1.3665936050955 18.978533342979 653.42484262804 10039.51845723
2586	1531340 1258 391228 20788434 7 60 54 516.75 523.35 28095.9 14618224.575
2585	1532598 1735 391228 20788434 7 60 54 396.52847003522 1022.2503909567 39455.038340736 31006443.740245
2645	1534333 1524 791705 20788434 10 60 51 0.973 11.874607429786 189.77957426279 1133.4759948664
2644	1535857 1697 791705 20788434 10 60 51 -2.4499232430192 2.1701410812442 16.587023803063 95.780525766775
2643	1537554 1678 646761 20788434 9 60 52 2.2987332774962 18.998721546051 635.75070104145 9532.609260981
2642	1539232 1237 509515 20788434 8 60 53 516.75 520.05 27542.85 14313427.4925
2641	1540469 1707 509515 20788434 8 60 53 413.51724750452 1022.375063128 39189.718506913 31040201.709977
3163	1542176 1114 5050450 20788434 26 60 35 0.95726297214289 11.590534283809 137.20910784582 802.03824340979
3162	1543290 1194 5050450 20788434 26 60 35 -1.8963369137169 2.1561036602571 16.060391436608 40.254842289316
3161	1544484 1174 4671155 20788434 25 60 36 2.6833976408355 18.998830522234 574.91560861564 9809.4927445785
3160	1545658 875 4303567 20788434 24 60 37 516.75 520.05 19123.05 9883552.2525
3159	1546533 1204 4303567 20788434 24 60 37 472.69902204723 1022.3244173439 28741.837937619 23539194.292836
3205	1547737 1058 5842603 20788434 28 60 33 0.973 11.933229146735 130.81338369002 730.24125290159
3204	1548795 1133 5842603 20788434 28 60 33 -0.97029771668246 2.0637470759009 15.739536351891 33.332556360259
3203	1549928 1111 5438739 20788434 27 60 34 3.1413040239445 18.994278208832 567.17843938036 10084.660030659
3202	1551039 829 5050450 20788434 26 60 35 516.75 523.35 18112.65 9373484.7675
3201	1551868 1139 5050450 20788434 26 60 35 481.81491185775 1022.1578753505 27597.266889427 22831217.137417
3289	1553007 1010 6723708 20788434 30 60 31 2.1749266183763 10.540226498138 121.61566410606 668.99746185626
3288	1554017 1074 6723708 20788434 30 60 31 -0.10253857912263 2.1918447264074 15.250608700478 29.509730054225
3287	1555091 1046 6273407 20788434 29 60 32 3.6782331388891 18.989775945812 537.93159884613 9630.3716111286
3286	1556137 783 5842603 20788434 28 60 33 516.75 516.75 17052.75 8812008.5625
3285	1556920 1077 5842603 20788434 28 60 33 510.17380480281 1021.7198698165 26477.126661114 22147450.249546
3331	1557997 951 7805336 20788434 32 60 29 2.1965038832019 11.205452161493 116.01046438218 642.09182223622
3330	1558948 999 7805336 20788434 32 60 29 -0.098008019744885 2.047781994727 14.780989863515 28.152115844104
3329	1559947 977 7175381 20788434 31 60 30 4.1376065025868 18.986238372254 504.10665556023 9005.609035195
3328	1560924 737 6723708 20788434 30 60 31 516.75 516.75 16019.25 8277947.4375
3327	1561661 1013 6723708 20788434 30 60 31 543.52764296616 1021.3255330183 25322.792850602 21428276.613478
3352	1562674 915 8270409 20788434 33 60 28 2.150960623161 11.831118373176 114.33272398252 676.11218147765
3351	1563589 971 8270409 20788434 33 60 28 -0.10784303542227 2.2251682388806 16.37851903166 33.642621390264
3350	1564560 949 7805336 20788434 32 60 29 2.4961707134907 18.98573463216 473.97904189255 8433.1026162131
3349	1565509 714 7175381 20788434 31 60 30 516.75 516.75 15502.5 8010916.875
3348	1566223 981 7175381 20788434 31 60 30 575.74080794816 1022.3752741404 25113.517134307 21664867.523146
3373	1567204 852 9205652 20788434 35 60 26 2.2828246723191 11.226146412545 108.38765476679 611.98653714716
3372	1568056 901 9205652 20788434 35 60 26 -0.079327263718003 2.0158921741834 16.040757358891 29.328008337777
3371	1568957 883 8736506 20788434 34 60 27 2.925070704068 18.991786080897 434.72529918333 7646.0043953996
3370	1569840 668 8270409 20788434 33 60 28 516.75 516.75 14469 7476855.75
3369	1570508 916 8270409 20788434 33 60 28 614.60982816515 1022.2486267128 23950.736122121 20987323.204971
3394	1571424 787 10143406 20788434 37 60 24 2.2866173547668 11.278901448791 102.94613267637 616.42063753285
3393	1572211 835 10143406 20788434 37 60 24 -0.078114391893614 2.1395704695815 15.329535129576 29.829943144837
3392	1573046 821 9673963 20788434 36 60 25 3.5437541568625 18.954806977697 404.9715828318 7115.4470181792
3391	1573867 622 9205652 20788434 35 60 26 516.75 516.75 13435.5 6942794.625
3390	1574489 851 9205652 20788434 35 60 26 643.30285719035 1021.8880296252 22523.518954251 19912994.437405
3415	1575340 721 11077930 20788434 39 60 22 2.2656405570113 10.256033884573 98.157424909062 598.80316840594
3414	1576061 765 11077930 20788434 39 60 22 -0.083341767049859 2.0834685303201 15.387267245726 29.595166901594
3413	1576826 756 10609939 20788434 38 60 23 3.594305295324 18.992074166813 368.23073601813 6422.7889911901
3412	1577582 576 10143406 20788434 37 60 24 516.75 516.75 12402 6408733.5
3411	1578158 790 10143406 20788434 37 60 24 679.43141421115 1021.5448541871 21183.119194738 19000876.303245
3436	1578948 691 11541095 20788434 40 60 21 2.2821291041809 11.344678517706 95.313413517095 591.54801595396
3435	1579639 728 11541095 20788434 40 60 21 -0.080018880546557 2.0592208646098 16.659829633151 31.799337110959
3434	1580367 726 11077930 20788434 39 60 22 2.2471144736915 18.991526428331 335.98787165072 5781.9867226804
3433	1581093 552 10609939 20788434 38 60 23 516.75 516.75 11885.25 6141702.9375
3432	1581645 736 10609939 20788434 38 60 23 713.66343360285 1022.4 20767.470318012 18992725.092571
3457	1582381 627 12467333 20788434 42 60 19 2.0754026231315 12.549920469417 90.39922406747 599.30672585843
3456	1583008 648 12467333 20788434 42 60 19 -0.1244013808202 2.2196064928244 16.330118489914 32.279382383868
3455	1583656 659 12007838 20788434 41 60 20 2.6107251908781 18.995604908918 302.57472803908 5167.5972833258
3454	1584315 504 11541095 20788434 40 60 21 516.75 516.75 10851.75 5607641.8125
3453	1584819 692 11541095 20788434 40 60 21 746.81220784733 1022.3242947998 19253.959235478 17829004.876525
2701	1585511 1505 1117069 20788434 12 60 49 0.973 11.244629151072 189.89694015738 1031.3699407719
2700	1587016 1647 1117069 20788434 12 60 49 -3.3739231671606 2.0784372282261 15.147975604688 101.23618989742
2699	1588663 1618 948904 20788434 11 60 50 1.8546200387633 18.994099869691 689.40929320353 11160.391892516
2698	1590281 1195 791705 20788434 10 60 51 516.75 516.75 26354.25 13618558.6875
2697	1591476 1652 791705 20788434 10 60 51 358.20405824894 1022.2515773688 35424.538480654 26812949.633712
3478	1593128 561 13390784 20788434 44 60 17 2.4222801667414 11.343608148486 85.080424557497 584.08728006104
3477	1593689 582 13390784 20788434 44 60 17 -0.049481071569026 2.1262613887806 16.040710956321 31.755642279625
3476	1594271 591 12931847 20788434 43 60 18 2.8951879479484 18.989421254774 267.63463812905 4518.3509699591
3475	1594862 456 12467333 20788434 42 60 19 516.75 516.75 9818.25 5073580.6875
3474	1595318 625 12467333 20788434 42 60 19 781.60236307263 1022.1493085545 17701.072044815 16612485.087907
3499	1595943 492 14310723 20788434 46 60 15 2.2539279143695 11.335828310773 79.433232575481 559.6211293483
3498	1596435 511 14310723 20788434 46 60 15 -0.086274689689745 2.1752234455175 15.461641571185 29.867721991448
3497	1596946 526 13852387 20788434 45 60 16 3.4998579367121 18.998051489168 233.33269861476 3862.9267164587
3496	1597472 408 13390784 20788434 44 60 17 516.75 516.75 8784.75 4539519.5625
3495	1597880 559 13390784 20788434 44 60 17 815.35263930517 1021.8851123808 16068.492125932 15267824.788731
3520	1598439 428 15237082 20788434 48 60 13 2.4200173349843 11.807861798998 73.863698258721 540.22709200331
3519	1598867 443 15237082 20788434 48 60 13 -0.050470640768761 2.1350490285247 14.914684964629 29.132807700847
3518	1599310 461 14774088 20788434 47 60 14 3.9904461752567 18.988626669745 201.36260798074 3284.2560573073
3517	1599771 360 14310723 20788434 46 60 15 516.75 516.75 7751.25 4005458.4375
3516	1600131 493 14310723 20788434 46 60 15 846.38571310463 1021.3528288952 14356.865022344 13791936.969753
3534	1600624 396 15702374 20788434 49 60 12 2.6491326077255 10.230346007163 72.044672749756 519.46135777669
3533	1601020 405 15702374 20788434 49 60 12 -0.0017331217415624 2.2338855806878 16.581253302491 31.735485825506
3532	1601425 428 15237082 20788434 48 60 13 2.3976434413203 18.980629865553 169.51635102915 2647.6929112799
3531	1601853 336 14774088 20788434 47 60 14 516.75 516.75 7234.5 3738427.875
3530	1602189 462 14774088 20788434 47 60 14 880.09335588592 1022.3747750018 13634.677799591 13309886.128627
3562	1602651 328 16631230 20788434 51 60 10 2.9839575096465 10.889041356388 66.291065741913 497.90472283922
3561	1602979 332 16631230 20788434 51 60 10 0.072569650360382 2.1486641389504 16.156655410136 30.333039842031
3560	1603311 363 16168757 20788434 50 60 11 2.7918314795114 18.948486889647 133.59921405681 1956.7445891456
3559	1603674 288 15702374 20788434 49 60 12 516.75 516.75 6201 3204366.75
3558	1603962 394 15702374 20788434 49 60 12 915.61427327725 1022.2538819367 11837.394865691 11691805.571375
3583	1604356 263 17555241 20788434 53 60 8 3.7803965413226 11.184994257997 59.826440558685 497.91822969134
3582	1604619 262 17555241 20788434 53 60 8 1.7629344591079 2.170851724497 15.559372319255 30.365861975424
3581	1604881 295 17094773 20788434 52 60 9 3.136106249324 18.69547856858 98.235748754654 1299.985096585
3580	1605176 240 16631230 20788434 51 60 10 516.75 516.75 5167.5 2670305.625
3579	1605416 329 16631230 20788434 51 60 10 949.44332225831 1022.0328363738 9975.011191531 9955973.0100283
3604	1605745 198 18479350 20788434 55 60 6 3.8908991714171 9.2800996419222 38.710387034317 267.92583552024
3603	1605943 198 18479350 20788434 55 60 6 1.7828494698065 2.0470379674924 11.594521373457 22.449657371992
3602	1606141 231 18019021 20788434 54 60 7 3.3749732255289 14.969494598986 64.512824265719 698.19039653203
3601	1606372 192 17555241 20788434 53 60 8 516.75 516.75 4134 2136244.5
3600	1606564 261 17555241 20788434 53 60 8 977.1350189684 1021.7215683318 8051.4298683307 8105085.7598808
3625	1606825 131 19405054 20788434 57 60 4 3.9804396367015 7.4114056380335 22.250403430648 130.71993807073
3624	1606956 132 19405054 20788434 57 60 4 1.7324796397961 2.0009395561856 7.4599573615077 13.9589717188
3623	1607088 165 18944638 20788434 56 60 5 4.1467374746261 11.606694836134 38.968966930198 338.29512088681
3622	1607253 144 18479350 20788434 55 60 6 516.75 516.75 3100.5 1602183.375
3621	1607397 196 18479350 20788434 55 60 6 997.411726537 1021.3588961148 6077.3929587066 6156240.2590887
3632	1607593 99 19866240 20788434 58 60 3 3.3908126831028 5.0865635546595 12.921392037435 57.120015875225
3631	1607692 99 19866240 20788434 58 60 3 1.8019543947582 1.9677703394811 5.7286632723827 10.956599945953
3630	1607791 132 19405054 20788434 57 60 4 2.4095380588329 8.1382013312156 21.252462923482 131.26780758246
3629	1607923 120 18944638 20788434 56 60 5 516.75 516.75 2583.75 1335152.8125
3628	1608043 165 18944638 20788434 56 60 5 1011.9371601174 1022.3750137407 5095.0247262829 5191934.0763338
3653	1608208 33 20788434 20788434 60 60 1 3.3820611870713 3.3820611870713 3.3820611870713 11.438337873094
3652	1608241 31 20788434 20788434 60 60 1 1.85032901183 1.85032901183 1.85032901183 3.4237174520199
3651	1608272 66 20326646 20788434 59 60 2 2.7294526099854 4.5797816218155 7.3092342318009 28.424311253675
3650	1608338 72 19866240 20788434 58 60 3 516.75 516.75 1550.25 801091.6875
3649	1608410 99 19866240 20788434 58 60 3 1020.3189431499 1022.2462720916 3064.811487333 3131025.6273607
2757	1608509 1445 1484220 20788434 14 60 47 0.973 11.043293456115 179.96048440599 987.70254815777
2756	1609954 1579 1484220 20788434 14 60 47 -2.8197946078483 2.124614767821 14.501641541167 84.354877312272
2755	1611533 1556 1296222 20788434 13 60 48 3.257133028099 18.999128500514 669.40704120802 10744.672432909
2754	1613089 1151 1117069 20788434 12 60 49 516.75 516.75 25320.75 13084497.5625
2753	1614240 1588 1117069 20788434 12 60 49 377.87208698682 1022.0420618017 34407.480250042 26188704.473264
3678	1615828 24 20788434 20788434 60 60 1 516.75 516.75 516.75 267030.5625
3677	1615852 33 20788434 20788434 60 60 1 1022.0305188808 1022.0305188808 1022.0305188808 1044546.3815238
2799	1615885 1380 1894833 20788434 16 60 45 0.973 10.880307915821 170.05792350486 921.75641778313
2798	1617265 1515 1894833 20788434 16 60 45 -2.4335439383462 2.2192572887358 13.684934333857 71.160354130153
2797	1618780 1493 1680087 20788434 15 60 46 3.4777492481221 18.986348388898 648.45816830335 10280.508327644
2796	1620273 1105 1484220 20788434 14 60 47 516.75 516.75 24287.25 12550436.4375
2795	1621378 1522 1484220 20788434 14 60 47 396.9019088342 1021.7144041437 33453.953312416 25677594.402509
2925	1622900 1317 2413019 20788434 18 60 43 0.973 9.9718702941619 160.43838939463 841.90050093054
2924	1624217 1457 2413019 20788434 18 60 43 -2.0962712595214 2.1040659326501 12.587122118903 58.814557254017
2923	1625674 1430 2146403 20788434 17 60 44 4.2176943966643 18.990893175832 629.0898395496 9921.3189538635
2922	1627104 1059 1894833 20788434 16 60 45 516.75 516.75 23253.75 12016375.3125
2921	1628163 1461 1894833 20788434 16 60 45 415.3974103139 1021.3438599509 32427.908786906 25070799.499165
2960	1629624 1286 2699857 20788434 19 60 42 0.973 11.985335610706 176.20026950234 1125.0910932445
2959	1630910 1416 2699857 20788434 19 60 42 -2.6043014780341 2.1224379388685 16.171985368918 84.232255143355
2958	1632326 1395 2413019 20788434 18 60 43 2.7087925310453 18.998727781165 618.42116182523 10041.572569233
2957	1633721 1036 2146403 20788434 17 60 44 516.75 523.35 22806.3 11821282.11
2956	1634757 1429 2146403 20788434 17 60 44 431.2417989337 1022.3236122951 32423.148654457 25507780.16051
3016	1636186 1232 3303319 20788434 21 60 40 0.973 10.295208033162 148.9181485535 789.92670666412
3015	1637418 1354 3303319 20788434 21 60 40 -2.2328182640172 2.1356146661914 13.04247353247 49.799919187492
3014	1638772 1331 2992018 20788434 20 60 41 3.3557482195866 18.999923923542 611.39336441778 9829.2355846933
3013	1640103 990 2699857 20788434 19 60 42 516.75 516.75 21703.5 11215283.625
3012	1641093 1364 2699857 20788434 19 60 42 433.73361650199 1022.0301223929 31054.147861837 24511200.325288
3072	1642457 1183 3950365 20788434 23 60 38 0.973 11.772803564808 140.10945338174 758.23450919301
3071	1643640 1287 3950365 20788434 23 60 38 -1.950153396324 2.1000327823032 12.407257909026 43.576640039976
3070	1644927 1269 3623773 20788434 22 60 39 3.5815561515633 18.991335381207 591.85036518488 9635.2447180331
3069	1646196 944 3303319 20788434 21 60 40 516.75 516.75 20670 10681222.5
3068	1647140 1300 3303319 20788434 21 60 40 452.12194713699 1021.5639853999 30162.443726022 24149802.738222
3086	1648440 1145 4303567 20788434 24 60 37 0.973 10.750113891002 156.81212229586 967.34979917985
3085	1649585 1258 4303567 20788434 24 60 37 -2.5299049058435 2.1147708464251 16.66725591483 55.577979670525
3084	1650843 1237 3950365 20788434 23 60 38 2.2529883940338 18.999875641265 598.3691295099 10160.597869701
3083	1652080 921 3623773 20788434 22 60 39 516.75 520.05 20196.15 10458670.6575
3082	1653001 1252 3623773 20788434 22 60 39 451.21284597073 1022.4 29840.165255153 24191358.293436
