version 2
run WithoutChSw-TrAD-0-20180208-16:40:14-23398
attr configname WithoutChSw-TrAD
attr datetime 20180208-16:40:14
attr experiment WithoutChSw-TrAD
attr inifile omnetpp.ini
attr iterationvars $0=0.1s
attr iterationvarsf 0.1s-
attr measurement $0=0.1s
attr network Scenario2
attr processid 23398
attr repetition 0
attr replication #0
attr resultdir results
attr runnumber 0
attr seedset 0
param **.coreDebug false
param **.debug false
param *.**.nic.mac1609_4.bitrate 6Mbps
param *.**.nic.mac1609_4.txPower 20mW
param *.**.nic.mac1609_4.useServiceChannel false
param *.**.nic.phy80211p.analogueModels "xmldoc(\"config.xml\")"
param *.**.nic.phy80211p.antenna "xmldoc(\"antenna.xml\", \"/root/Antenna[@id='monopole']\")"
param *.**.nic.phy80211p.collectCollisionStatistics true
param *.**.nic.phy80211p.decider "xmldoc(\"config.xml\")"
param *.**.nic.phy80211p.sensitivity -89dBm
param *.**.nic.phy80211p.thermalNoise -110dBm
param *.**.nic.phy80211p.usePropagationDelay true
param *.**.nic.phy80211p.useThermalNoise true
param *.annotations.draw true
param *.connectionManager.drawMaxIntfDist false
param *.connectionManager.maxInterfDist 2600m
param *.connectionManager.sendDirect true
param *.manager.autoShutdown true
param *.manager.host "\"localhost\""
param *.manager.launchConfig "xmldoc(\"mycross.launchd.xml\")"
param *.manager.port 9999
param *.manager.updateInterval 1s
param *.node[*].appl.TrAD true
param *.node[*].appl.TrAD_Neig 25
param *.node[*].appl.TrAD_R 366
param *.node[*].appl.TrAD_alpha 10
param *.node[*].appl.TrAD_ti 0.005
param *.node[*].appl.beaconInterval 1s
param *.node[*].appl.dataOnSch false
param *.node[*].appl.headerLength "80 bit"
param *.node[*].appl.sendBeacons true
param *.node[*].applType "\"myWaveAppLayer\""
param *.node[*].veinsmobility.x 0
param *.node[*].veinsmobility.y 0
param *.node[*].veinsmobility.z 1.895
param *.node[*].veinsmobilityType.debug true
param *.node[20].appl.Accident_start 30
param *.node[40].veinsmobility.accidentCount 1
param *.node[40].veinsmobility.accidentDuration 40s
param *.node[40].veinsmobility.accidentStart 30s
param *.obstacles.debug false
param *.playgroundSizeX 2500m
param *.playgroundSizeY 2500m
param *.playgroundSizeZ 50m
param *.rsu[*].appl.beaconInterval 0.1s
param *.rsu[*].appl.beaconUserPriority 7
param *.rsu[*].appl.dataOnSch false
param *.rsu[*].appl.dataUserPriority 5
param *.rsu[*].appl.headerLength "80 bit"
param *.rsu[*].appl.sendBeacons false
param *.rsu[*].applType "\"TraCIDemoRSU11p\""
param *.rsu[0].mobility.x 500
param *.rsu[0].mobility.y 500
param *.rsu[0].mobility.z 3

scalar Scenario2.node[18].appl 	generatedWSMs 	1
scalar Scenario2.node[18].appl 	receivedWSMs 	6
scalar Scenario2.node[18].appl 	generatedBSMs 	330
scalar Scenario2.node[18].appl 	receivedBSMs 	22640
scalar Scenario2.node[18].appl 	generatedWSAs 	0
scalar Scenario2.node[18].appl 	receivedWSAs 	0
scalar Scenario2.node[18].appl 	delayWSM 	0.000565342949
scalar Scenario2.node[18].appl 	Dist_Propa 	492.83302315433
scalar Scenario2.node[18].nic.phy80211p 	busyTime 	0.076484363636374
scalar Scenario2.node[18].nic.phy80211p 	ncollisions 	916
scalar Scenario2.node[18].nic.mac1609_4 	ReceivedUnicastPackets 	0
scalar Scenario2.node[18].nic.mac1609_4 	ReceivedBroadcasts 	22646
scalar Scenario2.node[18].nic.mac1609_4 	SentPackets 	331
scalar Scenario2.node[18].nic.mac1609_4 	SNIRLostPackets 	1596
scalar Scenario2.node[18].nic.mac1609_4 	RXTXLostPackets 	7
scalar Scenario2.node[18].nic.mac1609_4 	TotalLostPackets 	1603
scalar Scenario2.node[18].nic.mac1609_4 	DroppedPacketsInMac 	0
scalar Scenario2.node[18].nic.mac1609_4 	TooLittleTime 	0
scalar Scenario2.node[18].nic.mac1609_4 	TimesIntoBackoff 	332
scalar Scenario2.node[18].nic.mac1609_4 	SlotsBackoff 	497
scalar Scenario2.node[18].nic.mac1609_4 	NumInternalContention 	0
scalar Scenario2.node[18].nic.mac1609_4 	totalBusyTime 	2.486611
scalar Scenario2.node[18].veinsmobility 	startTime 	1
scalar Scenario2.node[18].veinsmobility 	totalTime 	32
scalar Scenario2.node[18].veinsmobility 	stopTime 	34
scalar Scenario2.node[18].veinsmobility 	minSpeed 	2.6377290236039
scalar Scenario2.node[18].veinsmobility 	maxSpeed 	18.998816868074
scalar Scenario2.node[18].veinsmobility 	totalDistance 	522.11524646103
scalar Scenario2.node[18].veinsmobility 	totalCO2Emission 	121.58310432878
scalar Scenario2.node[72].appl 	generatedWSMs 	0
scalar Scenario2.node[72].appl 	receivedWSMs 	0
scalar Scenario2.node[72].appl 	generatedBSMs 	320
scalar Scenario2.node[72].appl 	receivedBSMs 	21361
scalar Scenario2.node[72].appl 	generatedWSAs 	0
scalar Scenario2.node[72].appl 	receivedWSAs 	0
scalar Scenario2.node[72].appl 	delayWSM 	-1
scalar Scenario2.node[72].appl 	Dist_Propa 	-1
scalar Scenario2.node[72].nic.phy80211p 	busyTime 	0.074327500000016
scalar Scenario2.node[72].nic.phy80211p 	ncollisions 	853
scalar Scenario2.node[72].nic.mac1609_4 	ReceivedUnicastPackets 	0
scalar Scenario2.node[72].nic.mac1609_4 	ReceivedBroadcasts 	21361
scalar Scenario2.node[72].nic.mac1609_4 	SentPackets 	320
scalar Scenario2.node[72].nic.mac1609_4 	SNIRLostPackets 	1509
scalar Scenario2.node[72].nic.mac1609_4 	RXTXLostPackets 	0
scalar Scenario2.node[72].nic.mac1609_4 	TotalLostPackets 	1509
scalar Scenario2.node[72].nic.mac1609_4 	DroppedPacketsInMac 	0
scalar Scenario2.node[72].nic.mac1609_4 	TooLittleTime 	0
scalar Scenario2.node[72].nic.mac1609_4 	TimesIntoBackoff 	320
scalar Scenario2.node[72].nic.mac1609_4 	SlotsBackoff 	492
scalar Scenario2.node[72].nic.mac1609_4 	NumInternalContention 	0
scalar Scenario2.node[72].nic.mac1609_4 	totalBusyTime 	2.343856
scalar Scenario2.node[72].veinsmobility 	startTime 	3
scalar Scenario2.node[72].veinsmobility 	totalTime 	31
scalar Scenario2.node[72].veinsmobility 	stopTime 	35
scalar Scenario2.node[72].veinsmobility 	minSpeed 	4.160416336859
scalar Scenario2.node[72].veinsmobility 	maxSpeed 	18.998247401568
scalar Scenario2.node[72].veinsmobility 	totalDistance 	514.99453362875
scalar Scenario2.node[72].veinsmobility 	totalCO2Emission 	118.9178712817
scalar Scenario2.node[19].appl 	generatedWSMs 	1
scalar Scenario2.node[19].appl 	receivedWSMs 	6
scalar Scenario2.node[19].appl 	generatedBSMs 	350
scalar Scenario2.node[19].appl 	receivedBSMs 	24908
scalar Scenario2.node[19].appl 	generatedWSAs 	0
scalar Scenario2.node[19].appl 	receivedWSAs 	0
scalar Scenario2.node[19].appl 	delayWSM 	0.000565267138
scalar Scenario2.node[19].appl 	Dist_Propa 	515.39059150459
scalar Scenario2.node[19].nic.phy80211p 	busyTime 	0.079265142857145
scalar Scenario2.node[19].nic.phy80211p 	ncollisions 	982
scalar Scenario2.node[19].nic.mac1609_4 	ReceivedUnicastPackets 	0
scalar Scenario2.node[19].nic.mac1609_4 	ReceivedBroadcasts 	24914
scalar Scenario2.node[19].nic.mac1609_4 	SentPackets 	351
scalar Scenario2.node[19].nic.mac1609_4 	SNIRLostPackets 	1731
scalar Scenario2.node[19].nic.mac1609_4 	RXTXLostPackets 	6
scalar Scenario2.node[19].nic.mac1609_4 	TotalLostPackets 	1737
scalar Scenario2.node[19].nic.mac1609_4 	DroppedPacketsInMac 	0
scalar Scenario2.node[19].nic.mac1609_4 	TooLittleTime 	0
scalar Scenario2.node[19].nic.mac1609_4 	TimesIntoBackoff 	352
scalar Scenario2.node[19].nic.mac1609_4 	SlotsBackoff 	490
scalar Scenario2.node[19].nic.mac1609_4 	NumInternalContention 	0
scalar Scenario2.node[19].nic.mac1609_4 	totalBusyTime 	2.73144715436
scalar Scenario2.node[19].veinsmobility 	startTime 	1
scalar Scenario2.node[19].veinsmobility 	totalTime 	34
scalar Scenario2.node[19].veinsmobility 	stopTime 	36
scalar Scenario2.node[19].veinsmobility 	minSpeed 	2.7469869994252
scalar Scenario2.node[19].veinsmobility 	maxSpeed 	18.980967045685
scalar Scenario2.node[19].veinsmobility 	totalDistance 	552.79239116376
scalar Scenario2.node[19].veinsmobility 	totalCO2Emission 	125.79905284345
scalar Scenario2.node[81].appl 	generatedWSMs 	1
scalar Scenario2.node[81].appl 	receivedWSMs 	6
scalar Scenario2.node[81].appl 	generatedBSMs 	320
scalar Scenario2.node[81].appl 	receivedBSMs 	23780
scalar Scenario2.node[81].appl 	generatedWSAs 	0
scalar Scenario2.node[81].appl 	receivedWSAs 	0
scalar Scenario2.node[81].appl 	delayWSM 	0.000565247482
scalar Scenario2.node[81].appl 	Dist_Propa 	521.18504565226
scalar Scenario2.node[81].nic.phy80211p 	busyTime 	0.082478500000007
scalar Scenario2.node[81].nic.phy80211p 	ncollisions 	897
scalar Scenario2.node[81].nic.mac1609_4 	ReceivedUnicastPackets 	0
scalar Scenario2.node[81].nic.mac1609_4 	ReceivedBroadcasts 	23786
scalar Scenario2.node[81].nic.mac1609_4 	SentPackets 	321
scalar Scenario2.node[81].nic.mac1609_4 	SNIRLostPackets 	1560
scalar Scenario2.node[81].nic.mac1609_4 	RXTXLostPackets 	6
scalar Scenario2.node[81].nic.mac1609_4 	TotalLostPackets 	1566
scalar Scenario2.node[81].nic.mac1609_4 	DroppedPacketsInMac 	0
scalar Scenario2.node[81].nic.mac1609_4 	TooLittleTime 	0
scalar Scenario2.node[81].nic.mac1609_4 	TimesIntoBackoff 	322
scalar Scenario2.node[81].nic.mac1609_4 	SlotsBackoff 	481
scalar Scenario2.node[81].nic.mac1609_4 	NumInternalContention 	0
scalar Scenario2.node[81].nic.mac1609_4 	totalBusyTime 	2.602145043347
scalar Scenario2.node[81].veinsmobility 	startTime 	4
scalar Scenario2.node[81].veinsmobility 	totalTime 	31
scalar Scenario2.node[81].veinsmobility 	stopTime 	36
scalar Scenario2.node[81].veinsmobility 	minSpeed 	2.9169091988617
scalar Scenario2.node[81].veinsmobility 	maxSpeed 	18.976269957249
scalar Scenario2.node[81].veinsmobility 	totalDistance 	505.13364217523
scalar Scenario2.node[81].veinsmobility 	totalCO2Emission 	119.23000791163
scalar Scenario2.node[33].appl 	generatedWSMs 	1
scalar Scenario2.node[33].appl 	receivedWSMs 	6
scalar Scenario2.node[33].appl 	generatedBSMs 	360
scalar Scenario2.node[33].appl 	receivedBSMs 	27265
scalar Scenario2.node[33].appl 	generatedWSAs 	0
scalar Scenario2.node[33].appl 	receivedWSAs 	0
scalar Scenario2.node[33].appl 	delayWSM 	0.000565185826
scalar Scenario2.node[33].appl 	Dist_Propa 	542.04247105799
scalar Scenario2.node[33].nic.phy80211p 	busyTime 	0.084182888888883
scalar Scenario2.node[33].nic.phy80211p 	ncollisions 	1028
scalar Scenario2.node[33].nic.mac1609_4 	ReceivedUnicastPackets 	0
scalar Scenario2.node[33].nic.mac1609_4 	ReceivedBroadcasts 	27271
scalar Scenario2.node[33].nic.mac1609_4 	SentPackets 	361
scalar Scenario2.node[33].nic.mac1609_4 	SNIRLostPackets 	1836
scalar Scenario2.node[33].nic.mac1609_4 	RXTXLostPackets 	7
scalar Scenario2.node[33].nic.mac1609_4 	TotalLostPackets 	1843
scalar Scenario2.node[33].nic.mac1609_4 	DroppedPacketsInMac 	0
scalar Scenario2.node[33].nic.mac1609_4 	TooLittleTime 	0
scalar Scenario2.node[33].nic.mac1609_4 	TimesIntoBackoff 	362
scalar Scenario2.node[33].nic.mac1609_4 	SlotsBackoff 	529
scalar Scenario2.node[33].nic.mac1609_4 	NumInternalContention 	0
scalar Scenario2.node[33].nic.mac1609_4 	totalBusyTime 	2.982409163061
scalar Scenario2.node[33].veinsmobility 	startTime 	1
scalar Scenario2.node[33].veinsmobility 	totalTime 	35
scalar Scenario2.node[33].veinsmobility 	stopTime 	37
scalar Scenario2.node[33].veinsmobility 	minSpeed 	0.7030855698499
scalar Scenario2.node[33].veinsmobility 	maxSpeed 	18.994416443501
scalar Scenario2.node[33].veinsmobility 	totalDistance 	543.99849859273
scalar Scenario2.node[33].veinsmobility 	totalCO2Emission 	128.19238520245
scalar Scenario2.node[24].appl 	generatedWSMs 	1
scalar Scenario2.node[24].appl 	receivedWSMs 	5
scalar Scenario2.node[24].appl 	generatedBSMs 	360
scalar Scenario2.node[24].appl 	receivedBSMs 	27318
scalar Scenario2.node[24].appl 	generatedWSAs 	0
scalar Scenario2.node[24].appl 	receivedWSAs 	0
scalar Scenario2.node[24].appl 	delayWSM 	0.000565172055
scalar Scenario2.node[24].appl 	Dist_Propa 	543.43825235875
scalar Scenario2.node[24].nic.phy80211p 	busyTime 	0.084401333333327
scalar Scenario2.node[24].nic.phy80211p 	ncollisions 	1041
scalar Scenario2.node[24].nic.mac1609_4 	ReceivedUnicastPackets 	0
scalar Scenario2.node[24].nic.mac1609_4 	ReceivedBroadcasts 	27323
scalar Scenario2.node[24].nic.mac1609_4 	SentPackets 	361
scalar Scenario2.node[24].nic.mac1609_4 	SNIRLostPackets 	1851
scalar Scenario2.node[24].nic.mac1609_4 	RXTXLostPackets 	0
scalar Scenario2.node[24].nic.mac1609_4 	TotalLostPackets 	1851
scalar Scenario2.node[24].nic.mac1609_4 	DroppedPacketsInMac 	0
scalar Scenario2.node[24].nic.mac1609_4 	TooLittleTime 	0
scalar Scenario2.node[24].nic.mac1609_4 	TimesIntoBackoff 	361
scalar Scenario2.node[24].nic.mac1609_4 	SlotsBackoff 	538
scalar Scenario2.node[24].nic.mac1609_4 	NumInternalContention 	0
scalar Scenario2.node[24].nic.mac1609_4 	totalBusyTime 	2.989169182395
scalar Scenario2.node[24].veinsmobility 	startTime 	1
scalar Scenario2.node[24].veinsmobility 	totalTime 	35
scalar Scenario2.node[24].veinsmobility 	stopTime 	37
scalar Scenario2.node[24].veinsmobility 	minSpeed 	2.8351305318164
scalar Scenario2.node[24].veinsmobility 	maxSpeed 	18.986858689971
scalar Scenario2.node[24].veinsmobility 	totalDistance 	519.79892566372
scalar Scenario2.node[24].veinsmobility 	totalCO2Emission 	125.60350843403
scalar Scenario2.node[38].appl 	generatedWSMs 	1
scalar Scenario2.node[38].appl 	receivedWSMs 	6
scalar Scenario2.node[38].appl 	generatedBSMs 	370
scalar Scenario2.node[38].appl 	receivedBSMs 	29543
scalar Scenario2.node[38].appl 	generatedWSAs 	0
scalar Scenario2.node[38].appl 	receivedWSAs 	0
scalar Scenario2.node[38].appl 	delayWSM 	0.000565110315
scalar Scenario2.node[38].appl 	Dist_Propa 	564.41747452453
scalar Scenario2.node[38].nic.phy80211p 	busyTime 	0.088987891891878
scalar Scenario2.node[38].nic.phy80211p 	ncollisions 	1078
scalar Scenario2.node[38].nic.mac1609_4 	ReceivedUnicastPackets 	0
scalar Scenario2.node[38].nic.mac1609_4 	ReceivedBroadcasts 	29549
scalar Scenario2.node[38].nic.mac1609_4 	SentPackets 	371
scalar Scenario2.node[38].nic.mac1609_4 	SNIRLostPackets 	2072
scalar Scenario2.node[38].nic.mac1609_4 	RXTXLostPackets 	8
scalar Scenario2.node[38].nic.mac1609_4 	TotalLostPackets 	2080
scalar Scenario2.node[38].nic.mac1609_4 	DroppedPacketsInMac 	0
scalar Scenario2.node[38].nic.mac1609_4 	TooLittleTime 	0
scalar Scenario2.node[38].nic.mac1609_4 	TimesIntoBackoff 	372
scalar Scenario2.node[38].nic.mac1609_4 	SlotsBackoff 	550
scalar Scenario2.node[38].nic.mac1609_4 	NumInternalContention 	0
scalar Scenario2.node[38].nic.mac1609_4 	totalBusyTime 	3.225571150597
scalar Scenario2.node[38].veinsmobility 	startTime 	1
scalar Scenario2.node[38].veinsmobility 	totalTime 	36
scalar Scenario2.node[38].veinsmobility 	stopTime 	38
scalar Scenario2.node[38].veinsmobility 	minSpeed 	3.8436146157379
scalar Scenario2.node[38].veinsmobility 	maxSpeed 	18.956129539851
scalar Scenario2.node[38].veinsmobility 	totalDistance 	572.52570590264
scalar Scenario2.node[38].veinsmobility 	totalCO2Emission 	127.13910885386
scalar Scenario2.node[77].appl 	generatedWSMs 	0
scalar Scenario2.node[77].appl 	receivedWSMs 	0
scalar Scenario2.node[77].appl 	generatedBSMs 	350
scalar Scenario2.node[77].appl 	receivedBSMs 	26712
scalar Scenario2.node[77].appl 	generatedWSAs 	0
scalar Scenario2.node[77].appl 	receivedWSAs 	0
scalar Scenario2.node[77].appl 	delayWSM 	-1
scalar Scenario2.node[77].appl 	Dist_Propa 	-1
scalar Scenario2.node[77].nic.phy80211p 	busyTime 	0.085567542857138
scalar Scenario2.node[77].nic.phy80211p 	ncollisions 	970
scalar Scenario2.node[77].nic.mac1609_4 	ReceivedUnicastPackets 	0
scalar Scenario2.node[77].nic.mac1609_4 	ReceivedBroadcasts 	26712
scalar Scenario2.node[77].nic.mac1609_4 	SentPackets 	350
scalar Scenario2.node[77].nic.mac1609_4 	SNIRLostPackets 	2070
scalar Scenario2.node[77].nic.mac1609_4 	RXTXLostPackets 	0
scalar Scenario2.node[77].nic.mac1609_4 	TotalLostPackets 	2070
scalar Scenario2.node[77].nic.mac1609_4 	DroppedPacketsInMac 	0
scalar Scenario2.node[77].nic.mac1609_4 	TooLittleTime 	0
scalar Scenario2.node[77].nic.mac1609_4 	TimesIntoBackoff 	488
scalar Scenario2.node[77].nic.mac1609_4 	SlotsBackoff 	734
scalar Scenario2.node[77].nic.mac1609_4 	NumInternalContention 	0
scalar Scenario2.node[77].nic.mac1609_4 	totalBusyTime 	2.916062583892
scalar Scenario2.node[77].veinsmobility 	startTime 	3
scalar Scenario2.node[77].veinsmobility 	totalTime 	34
scalar Scenario2.node[77].veinsmobility 	stopTime 	38
scalar Scenario2.node[77].veinsmobility 	minSpeed 	2.469303570089
scalar Scenario2.node[77].veinsmobility 	maxSpeed 	18.989598316788
scalar Scenario2.node[77].veinsmobility 	totalDistance 	534.6176752236
scalar Scenario2.node[77].veinsmobility 	totalCO2Emission 	125.29924590028
scalar Scenario2.node[78].appl 	generatedWSMs 	1
scalar Scenario2.node[78].appl 	receivedWSMs 	6
scalar Scenario2.node[78].appl 	generatedBSMs 	350
scalar Scenario2.node[78].appl 	receivedBSMs 	28496
scalar Scenario2.node[78].appl 	generatedWSAs 	0
scalar Scenario2.node[78].appl 	receivedWSAs 	0
scalar Scenario2.node[78].appl 	delayWSM 	0.000565096936
scalar Scenario2.node[78].appl 	Dist_Propa 	244.48526583796
scalar Scenario2.node[78].nic.phy80211p 	busyTime 	0.090421485714275
scalar Scenario2.node[78].nic.phy80211p 	ncollisions 	1033
scalar Scenario2.node[78].nic.mac1609_4 	ReceivedUnicastPackets 	0
scalar Scenario2.node[78].nic.mac1609_4 	ReceivedBroadcasts 	28502
scalar Scenario2.node[78].nic.mac1609_4 	SentPackets 	351
scalar Scenario2.node[78].nic.mac1609_4 	SNIRLostPackets 	1884
scalar Scenario2.node[78].nic.mac1609_4 	RXTXLostPackets 	7
scalar Scenario2.node[78].nic.mac1609_4 	TotalLostPackets 	1891
scalar Scenario2.node[78].nic.mac1609_4 	DroppedPacketsInMac 	0
scalar Scenario2.node[78].nic.mac1609_4 	TooLittleTime 	0
scalar Scenario2.node[78].nic.mac1609_4 	TimesIntoBackoff 	352
scalar Scenario2.node[78].nic.mac1609_4 	SlotsBackoff 	562
scalar Scenario2.node[78].nic.mac1609_4 	NumInternalContention 	0
scalar Scenario2.node[78].nic.mac1609_4 	totalBusyTime 	3.109903209226
scalar Scenario2.node[78].veinsmobility 	startTime 	3
scalar Scenario2.node[78].veinsmobility 	totalTime 	34
scalar Scenario2.node[78].veinsmobility 	stopTime 	38
scalar Scenario2.node[78].veinsmobility 	minSpeed 	1.6589710813337
scalar Scenario2.node[78].veinsmobility 	maxSpeed 	18.915644339598
scalar Scenario2.node[78].veinsmobility 	totalDistance 	513.35441316521
scalar Scenario2.node[78].veinsmobility 	totalCO2Emission 	122.34261446111
scalar Scenario2.node[23].appl 	generatedWSMs 	0
scalar Scenario2.node[23].appl 	receivedWSMs 	0
scalar Scenario2.node[23].appl 	generatedBSMs 	380
scalar Scenario2.node[23].appl 	receivedBSMs 	29608
scalar Scenario2.node[23].appl 	generatedWSAs 	0
scalar Scenario2.node[23].appl 	receivedWSAs 	0
scalar Scenario2.node[23].appl 	delayWSM 	-1
scalar Scenario2.node[23].appl 	Dist_Propa 	-1
scalar Scenario2.node[23].nic.phy80211p 	busyTime 	0.087100631578933
scalar Scenario2.node[23].nic.phy80211p 	ncollisions 	1080
scalar Scenario2.node[23].nic.mac1609_4 	ReceivedUnicastPackets 	0
scalar Scenario2.node[23].nic.mac1609_4 	ReceivedBroadcasts 	29608
scalar Scenario2.node[23].nic.mac1609_4 	SentPackets 	380
scalar Scenario2.node[23].nic.mac1609_4 	SNIRLostPackets 	2168
scalar Scenario2.node[23].nic.mac1609_4 	RXTXLostPackets 	184
scalar Scenario2.node[23].nic.mac1609_4 	TotalLostPackets 	2352
scalar Scenario2.node[23].nic.mac1609_4 	DroppedPacketsInMac 	0
scalar Scenario2.node[23].nic.mac1609_4 	TooLittleTime 	0
scalar Scenario2.node[23].nic.mac1609_4 	TimesIntoBackoff 	380
scalar Scenario2.node[23].nic.mac1609_4 	SlotsBackoff 	559
scalar Scenario2.node[23].nic.mac1609_4 	NumInternalContention 	0
scalar Scenario2.node[23].nic.mac1609_4 	totalBusyTime 	3.23377699849
scalar Scenario2.node[23].veinsmobility 	startTime 	1
scalar Scenario2.node[23].veinsmobility 	totalTime 	37
scalar Scenario2.node[23].veinsmobility 	stopTime 	39
scalar Scenario2.node[23].veinsmobility 	minSpeed 	3.9197721995389
scalar Scenario2.node[23].veinsmobility 	maxSpeed 	18.958762100481
scalar Scenario2.node[23].veinsmobility 	totalDistance 	551.2990211723
scalar Scenario2.node[23].veinsmobility 	totalCO2Emission 	129.27981560609
scalar Scenario2.node[99].appl 	generatedWSMs 	1
scalar Scenario2.node[99].appl 	receivedWSMs 	6
scalar Scenario2.node[99].appl 	generatedBSMs 	320
scalar Scenario2.node[99].appl 	receivedBSMs 	27811
scalar Scenario2.node[99].appl 	generatedWSAs 	0
scalar Scenario2.node[99].appl 	receivedWSAs 	0
scalar Scenario2.node[99].appl 	delayWSM 	0.000565021507
scalar Scenario2.node[99].appl 	Dist_Propa 	588.14143980401
scalar Scenario2.node[99].nic.phy80211p 	busyTime 	0.096826249999991
scalar Scenario2.node[99].nic.phy80211p 	ncollisions 	960
scalar Scenario2.node[99].nic.mac1609_4 	ReceivedUnicastPackets 	0
scalar Scenario2.node[99].nic.mac1609_4 	ReceivedBroadcasts 	27817
scalar Scenario2.node[99].nic.mac1609_4 	SentPackets 	321
scalar Scenario2.node[99].nic.mac1609_4 	SNIRLostPackets 	1908
scalar Scenario2.node[99].nic.mac1609_4 	RXTXLostPackets 	7
scalar Scenario2.node[99].nic.mac1609_4 	TotalLostPackets 	1915
scalar Scenario2.node[99].nic.mac1609_4 	DroppedPacketsInMac 	0
scalar Scenario2.node[99].nic.mac1609_4 	TooLittleTime 	0
scalar Scenario2.node[99].nic.mac1609_4 	TimesIntoBackoff 	322
scalar Scenario2.node[99].nic.mac1609_4 	SlotsBackoff 	494
scalar Scenario2.node[99].nic.mac1609_4 	NumInternalContention 	0
scalar Scenario2.node[99].nic.mac1609_4 	totalBusyTime 	3.027921329088
scalar Scenario2.node[99].veinsmobility 	startTime 	7
scalar Scenario2.node[99].veinsmobility 	totalTime 	31
scalar Scenario2.node[99].veinsmobility 	stopTime 	39
scalar Scenario2.node[99].veinsmobility 	minSpeed 	3.4495017279335
scalar Scenario2.node[99].veinsmobility 	maxSpeed 	18.97233216234
scalar Scenario2.node[99].veinsmobility 	totalDistance 	505.89978518668
scalar Scenario2.node[99].veinsmobility 	totalCO2Emission 	118.34030555927
scalar Scenario2.node[43].appl 	generatedWSMs 	1
scalar Scenario2.node[43].appl 	receivedWSMs 	7
scalar Scenario2.node[43].appl 	generatedBSMs 	390
scalar Scenario2.node[43].appl 	receivedBSMs 	33099
scalar Scenario2.node[43].appl 	generatedWSAs 	0
scalar Scenario2.node[43].appl 	receivedWSAs 	0
scalar Scenario2.node[43].appl 	delayWSM 	0.000564965698
scalar Scenario2.node[43].appl 	Dist_Propa 	606.70141593829
scalar Scenario2.node[43].nic.phy80211p 	busyTime 	0.094839999999975
scalar Scenario2.node[43].nic.phy80211p 	ncollisions 	1159
scalar Scenario2.node[43].nic.mac1609_4 	ReceivedUnicastPackets 	0
scalar Scenario2.node[43].nic.mac1609_4 	ReceivedBroadcasts 	33106
scalar Scenario2.node[43].nic.mac1609_4 	SentPackets 	391
scalar Scenario2.node[43].nic.mac1609_4 	SNIRLostPackets 	2379
scalar Scenario2.node[43].nic.mac1609_4 	RXTXLostPackets 	7
scalar Scenario2.node[43].nic.mac1609_4 	TotalLostPackets 	2386
scalar Scenario2.node[43].nic.mac1609_4 	DroppedPacketsInMac 	0
scalar Scenario2.node[43].nic.mac1609_4 	TooLittleTime 	0
scalar Scenario2.node[43].nic.mac1609_4 	TimesIntoBackoff 	392
scalar Scenario2.node[43].nic.mac1609_4 	SlotsBackoff 	587
scalar Scenario2.node[43].nic.mac1609_4 	NumInternalContention 	0
scalar Scenario2.node[43].nic.mac1609_4 	totalBusyTime 	3.606023149678
scalar Scenario2.node[43].veinsmobility 	startTime 	1
scalar Scenario2.node[43].veinsmobility 	totalTime 	38
scalar Scenario2.node[43].veinsmobility 	stopTime 	40
scalar Scenario2.node[43].veinsmobility 	minSpeed 	0.93985029414634
scalar Scenario2.node[43].veinsmobility 	maxSpeed 	18.998235099297
scalar Scenario2.node[43].veinsmobility 	totalDistance 	533.08445200913
scalar Scenario2.node[43].veinsmobility 	totalCO2Emission 	131.64580719256
scalar Scenario2.node[97].appl 	generatedWSMs 	1
scalar Scenario2.node[97].appl 	receivedWSMs 	3
scalar Scenario2.node[97].appl 	generatedBSMs 	340
scalar Scenario2.node[97].appl 	receivedBSMs 	32041
scalar Scenario2.node[97].appl 	generatedWSAs 	0
scalar Scenario2.node[97].appl 	receivedWSAs 	0
scalar Scenario2.node[97].appl 	delayWSM 	0.010803406552
scalar Scenario2.node[97].appl 	Dist_Propa 	248.89857457173
scalar Scenario2.node[97].nic.phy80211p 	busyTime 	0.10666329411762
scalar Scenario2.node[97].nic.phy80211p 	ncollisions 	1297
scalar Scenario2.node[97].nic.mac1609_4 	ReceivedUnicastPackets 	0
scalar Scenario2.node[97].nic.mac1609_4 	ReceivedBroadcasts 	32044
scalar Scenario2.node[97].nic.mac1609_4 	SentPackets 	341
scalar Scenario2.node[97].nic.mac1609_4 	SNIRLostPackets 	2743
scalar Scenario2.node[97].nic.mac1609_4 	RXTXLostPackets 	9
scalar Scenario2.node[97].nic.mac1609_4 	TotalLostPackets 	2752
scalar Scenario2.node[97].nic.mac1609_4 	DroppedPacketsInMac 	0
scalar Scenario2.node[97].nic.mac1609_4 	TooLittleTime 	0
scalar Scenario2.node[97].nic.mac1609_4 	TimesIntoBackoff 	341
scalar Scenario2.node[97].nic.mac1609_4 	SlotsBackoff 	560
scalar Scenario2.node[97].nic.mac1609_4 	NumInternalContention 	0
scalar Scenario2.node[97].nic.mac1609_4 	totalBusyTime 	3.50533631488
scalar Scenario2.node[97].veinsmobility 	startTime 	6
scalar Scenario2.node[97].veinsmobility 	totalTime 	33
scalar Scenario2.node[97].veinsmobility 	stopTime 	40
scalar Scenario2.node[97].veinsmobility 	minSpeed 	2.0811592944059
scalar Scenario2.node[97].veinsmobility 	maxSpeed 	18.985642932095
scalar Scenario2.node[97].veinsmobility 	totalDistance 	537.06051774556
scalar Scenario2.node[97].veinsmobility 	totalCO2Emission 	124.01651426989
scalar Scenario2.node[87].appl 	generatedWSMs 	1
scalar Scenario2.node[87].appl 	receivedWSMs 	6
scalar Scenario2.node[87].appl 	generatedBSMs 	360
scalar Scenario2.node[87].appl 	receivedBSMs 	31856
scalar Scenario2.node[87].appl 	generatedWSAs 	0
scalar Scenario2.node[87].appl 	receivedWSAs 	0
scalar Scenario2.node[87].appl 	delayWSM 	0.0005649395
scalar Scenario2.node[87].appl 	Dist_Propa 	615.42082122358
scalar Scenario2.node[87].nic.phy80211p 	busyTime 	0.098817555555533
scalar Scenario2.node[87].nic.phy80211p 	ncollisions 	1079
scalar Scenario2.node[87].nic.mac1609_4 	ReceivedUnicastPackets 	0
scalar Scenario2.node[87].nic.mac1609_4 	ReceivedBroadcasts 	31862
scalar Scenario2.node[87].nic.mac1609_4 	SentPackets 	361
scalar Scenario2.node[87].nic.mac1609_4 	SNIRLostPackets 	2269
scalar Scenario2.node[87].nic.mac1609_4 	RXTXLostPackets 	14
scalar Scenario2.node[87].nic.mac1609_4 	TotalLostPackets 	2283
scalar Scenario2.node[87].nic.mac1609_4 	DroppedPacketsInMac 	0
scalar Scenario2.node[87].nic.mac1609_4 	TooLittleTime 	0
scalar Scenario2.node[87].nic.mac1609_4 	TimesIntoBackoff 	362
scalar Scenario2.node[87].nic.mac1609_4 	SlotsBackoff 	547
scalar Scenario2.node[87].nic.mac1609_4 	NumInternalContention 	0
scalar Scenario2.node[87].nic.mac1609_4 	totalBusyTime 	3.465285718551
scalar Scenario2.node[87].veinsmobility 	startTime 	5
scalar Scenario2.node[87].veinsmobility 	totalTime 	35
scalar Scenario2.node[87].veinsmobility 	stopTime 	41
scalar Scenario2.node[87].veinsmobility 	minSpeed 	1.5977305046032
scalar Scenario2.node[87].veinsmobility 	maxSpeed 	18.996921987447
scalar Scenario2.node[87].veinsmobility 	totalDistance 	533.65184389026
scalar Scenario2.node[87].veinsmobility 	totalCO2Emission 	127.08622532585
scalar Scenario2.node[65].appl 	generatedWSMs 	1
scalar Scenario2.node[65].appl 	receivedWSMs 	6
scalar Scenario2.node[65].appl 	generatedBSMs 	390
scalar Scenario2.node[65].appl 	receivedBSMs 	34594
scalar Scenario2.node[65].appl 	generatedWSAs 	0
scalar Scenario2.node[65].appl 	receivedWSAs 	0
scalar Scenario2.node[65].appl 	delayWSM 	0.000564890884
scalar Scenario2.node[65].appl 	Dist_Propa 	625.04152605841
scalar Scenario2.node[65].nic.phy80211p 	busyTime 	0.099746871794842
scalar Scenario2.node[65].nic.phy80211p 	ncollisions 	1273
scalar Scenario2.node[65].nic.mac1609_4 	ReceivedUnicastPackets 	0
scalar Scenario2.node[65].nic.mac1609_4 	ReceivedBroadcasts 	34600
scalar Scenario2.node[65].nic.mac1609_4 	SentPackets 	391
scalar Scenario2.node[65].nic.mac1609_4 	SNIRLostPackets 	2714
scalar Scenario2.node[65].nic.mac1609_4 	RXTXLostPackets 	9
scalar Scenario2.node[65].nic.mac1609_4 	TotalLostPackets 	2723
scalar Scenario2.node[65].nic.mac1609_4 	DroppedPacketsInMac 	0
scalar Scenario2.node[65].nic.mac1609_4 	TooLittleTime 	0
scalar Scenario2.node[65].nic.mac1609_4 	TimesIntoBackoff 	392
scalar Scenario2.node[65].nic.mac1609_4 	SlotsBackoff 	604
scalar Scenario2.node[65].nic.mac1609_4 	NumInternalContention 	0
scalar Scenario2.node[65].nic.mac1609_4 	totalBusyTime 	3.773363662907
scalar Scenario2.node[65].veinsmobility 	startTime 	2
scalar Scenario2.node[65].veinsmobility 	totalTime 	38
scalar Scenario2.node[65].veinsmobility 	stopTime 	41
scalar Scenario2.node[65].veinsmobility 	minSpeed 	2.7004654792201
scalar Scenario2.node[65].veinsmobility 	maxSpeed 	18.952788990605
scalar Scenario2.node[65].veinsmobility 	totalDistance 	542.46622928497
scalar Scenario2.node[65].veinsmobility 	totalCO2Emission 	129.04066945565
scalar Scenario2.node[86].appl 	generatedWSMs 	1
scalar Scenario2.node[86].appl 	receivedWSMs 	4
scalar Scenario2.node[86].appl 	generatedBSMs 	360
scalar Scenario2.node[86].appl 	receivedBSMs 	34706
scalar Scenario2.node[86].appl 	generatedWSAs 	0
scalar Scenario2.node[86].appl 	receivedWSAs 	0
scalar Scenario2.node[86].appl 	delayWSM 	0.010803330706
scalar Scenario2.node[86].appl 	Dist_Propa 	271.02479860395
scalar Scenario2.node[86].nic.phy80211p 	busyTime 	0.10921511111108
scalar Scenario2.node[86].nic.phy80211p 	ncollisions 	1413
scalar Scenario2.node[86].nic.mac1609_4 	ReceivedUnicastPackets 	0
scalar Scenario2.node[86].nic.mac1609_4 	ReceivedBroadcasts 	34710
scalar Scenario2.node[86].nic.mac1609_4 	SentPackets 	361
scalar Scenario2.node[86].nic.mac1609_4 	SNIRLostPackets 	2998
scalar Scenario2.node[86].nic.mac1609_4 	RXTXLostPackets 	9
scalar Scenario2.node[86].nic.mac1609_4 	TotalLostPackets 	3007
scalar Scenario2.node[86].nic.mac1609_4 	DroppedPacketsInMac 	0
scalar Scenario2.node[86].nic.mac1609_4 	TooLittleTime 	0
scalar Scenario2.node[86].nic.mac1609_4 	TimesIntoBackoff 	361
scalar Scenario2.node[86].nic.mac1609_4 	SlotsBackoff 	534
scalar Scenario2.node[86].nic.mac1609_4 	NumInternalContention 	0
scalar Scenario2.node[86].nic.mac1609_4 	totalBusyTime 	3.796085451272
scalar Scenario2.node[86].veinsmobility 	startTime 	5
scalar Scenario2.node[86].veinsmobility 	totalTime 	35
scalar Scenario2.node[86].veinsmobility 	stopTime 	41
scalar Scenario2.node[86].veinsmobility 	minSpeed 	2.8531540664863
scalar Scenario2.node[86].veinsmobility 	maxSpeed 	18.998548358157
scalar Scenario2.node[86].veinsmobility 	totalDistance 	576.58382063838
scalar Scenario2.node[86].veinsmobility 	totalCO2Emission 	128.79870530879
scalar Scenario2.node[69].appl 	generatedWSMs 	1
scalar Scenario2.node[69].appl 	receivedWSMs 	6
scalar Scenario2.node[69].appl 	generatedBSMs 	400
scalar Scenario2.node[69].appl 	receivedBSMs 	35475
scalar Scenario2.node[69].appl 	generatedWSAs 	0
scalar Scenario2.node[69].appl 	receivedWSAs 	0
scalar Scenario2.node[69].appl 	delayWSM 	0.000564864792
scalar Scenario2.node[69].appl 	Dist_Propa 	635.23159504359
scalar Scenario2.node[69].nic.phy80211p 	busyTime 	0.099746199999968
scalar Scenario2.node[69].nic.phy80211p 	ncollisions 	1331
scalar Scenario2.node[69].nic.mac1609_4 	ReceivedUnicastPackets 	0
scalar Scenario2.node[69].nic.mac1609_4 	ReceivedBroadcasts 	35481
scalar Scenario2.node[69].nic.mac1609_4 	SentPackets 	401
scalar Scenario2.node[69].nic.mac1609_4 	SNIRLostPackets 	2798
scalar Scenario2.node[69].nic.mac1609_4 	RXTXLostPackets 	19
scalar Scenario2.node[69].nic.mac1609_4 	TotalLostPackets 	2817
scalar Scenario2.node[69].nic.mac1609_4 	DroppedPacketsInMac 	0
scalar Scenario2.node[69].nic.mac1609_4 	TooLittleTime 	0
scalar Scenario2.node[69].nic.mac1609_4 	TimesIntoBackoff 	402
scalar Scenario2.node[69].nic.mac1609_4 	SlotsBackoff 	619
scalar Scenario2.node[69].nic.mac1609_4 	NumInternalContention 	0
scalar Scenario2.node[69].nic.mac1609_4 	totalBusyTime 	3.871961203757
scalar Scenario2.node[69].veinsmobility 	startTime 	2
scalar Scenario2.node[69].veinsmobility 	totalTime 	39
scalar Scenario2.node[69].veinsmobility 	stopTime 	42
scalar Scenario2.node[69].veinsmobility 	minSpeed 	1.8372399861668
scalar Scenario2.node[69].veinsmobility 	maxSpeed 	18.994541057395
scalar Scenario2.node[69].veinsmobility 	totalDistance 	557.44137128233
scalar Scenario2.node[69].veinsmobility 	totalCO2Emission 	133.33762905362
scalar Scenario2.node[2].appl 	generatedWSMs 	1
scalar Scenario2.node[2].appl 	receivedWSMs 	6
scalar Scenario2.node[2].appl 	generatedBSMs 	420
scalar Scenario2.node[2].appl 	receivedBSMs 	37285
scalar Scenario2.node[2].appl 	generatedWSAs 	0
scalar Scenario2.node[2].appl 	receivedWSAs 	0
scalar Scenario2.node[2].appl 	delayWSM 	0.000564816898
scalar Scenario2.node[2].appl 	Dist_Propa 	645.91612644906
scalar Scenario2.node[2].nic.phy80211p 	busyTime 	0.099952761904746
scalar Scenario2.node[2].nic.phy80211p 	ncollisions 	1406
scalar Scenario2.node[2].nic.mac1609_4 	ReceivedUnicastPackets 	0
scalar Scenario2.node[2].nic.mac1609_4 	ReceivedBroadcasts 	37291
scalar Scenario2.node[2].nic.mac1609_4 	SentPackets 	421
scalar Scenario2.node[2].nic.mac1609_4 	SNIRLostPackets 	2965
scalar Scenario2.node[2].nic.mac1609_4 	RXTXLostPackets 	10
scalar Scenario2.node[2].nic.mac1609_4 	TotalLostPackets 	2975
scalar Scenario2.node[2].nic.mac1609_4 	DroppedPacketsInMac 	0
scalar Scenario2.node[2].nic.mac1609_4 	TooLittleTime 	0
scalar Scenario2.node[2].nic.mac1609_4 	TimesIntoBackoff 	564
scalar Scenario2.node[2].nic.mac1609_4 	SlotsBackoff 	885
scalar Scenario2.node[2].nic.mac1609_4 	NumInternalContention 	0
scalar Scenario2.node[2].nic.mac1609_4 	totalBusyTime 	4.070101351213
scalar Scenario2.node[2].veinsmobility 	startTime 	1
scalar Scenario2.node[2].veinsmobility 	totalTime 	41
scalar Scenario2.node[2].veinsmobility 	stopTime 	43
scalar Scenario2.node[2].veinsmobility 	minSpeed 	3.897912896338
scalar Scenario2.node[2].veinsmobility 	maxSpeed 	18.952529372755
scalar Scenario2.node[2].veinsmobility 	totalDistance 	587.77899406994
scalar Scenario2.node[2].veinsmobility 	totalCO2Emission 	134.19222120583
scalar Scenario2.node[100].appl 	generatedWSMs 	1
scalar Scenario2.node[100].appl 	receivedWSMs 	6
scalar Scenario2.node[100].appl 	generatedBSMs 	360
scalar Scenario2.node[100].appl 	receivedBSMs 	34048
scalar Scenario2.node[100].appl 	generatedWSAs 	0
scalar Scenario2.node[100].appl 	receivedWSAs 	0
scalar Scenario2.node[100].appl 	delayWSM 	0.000564790274
scalar Scenario2.node[100].appl 	Dist_Propa 	654.58340671823
scalar Scenario2.node[100].nic.phy80211p 	busyTime 	0.10638399999997
scalar Scenario2.node[100].nic.phy80211p 	ncollisions 	1277
scalar Scenario2.node[100].nic.mac1609_4 	ReceivedUnicastPackets 	0
scalar Scenario2.node[100].nic.mac1609_4 	ReceivedBroadcasts 	34054
scalar Scenario2.node[100].nic.mac1609_4 	SentPackets 	361
scalar Scenario2.node[100].nic.mac1609_4 	SNIRLostPackets 	2658
scalar Scenario2.node[100].nic.mac1609_4 	RXTXLostPackets 	7
scalar Scenario2.node[100].nic.mac1609_4 	TotalLostPackets 	2665
scalar Scenario2.node[100].nic.mac1609_4 	DroppedPacketsInMac 	0
scalar Scenario2.node[100].nic.mac1609_4 	TooLittleTime 	0
scalar Scenario2.node[100].nic.mac1609_4 	TimesIntoBackoff 	362
scalar Scenario2.node[100].nic.mac1609_4 	SlotsBackoff 	526
scalar Scenario2.node[100].nic.mac1609_4 	NumInternalContention 	0
scalar Scenario2.node[100].nic.mac1609_4 	totalBusyTime 	3.713949845969
scalar Scenario2.node[100].veinsmobility 	startTime 	7
scalar Scenario2.node[100].veinsmobility 	totalTime 	35
scalar Scenario2.node[100].veinsmobility 	stopTime 	43
scalar Scenario2.node[100].veinsmobility 	minSpeed 	3.7401869103686
scalar Scenario2.node[100].veinsmobility 	maxSpeed 	18.953406393947
scalar Scenario2.node[100].veinsmobility 	totalDistance 	554.61934619149
scalar Scenario2.node[100].veinsmobility 	totalCO2Emission 	124.93218523496
scalar Scenario2.node[75].appl 	generatedWSMs 	1
scalar Scenario2.node[75].appl 	receivedWSMs 	7
scalar Scenario2.node[75].appl 	generatedBSMs 	410
scalar Scenario2.node[75].appl 	receivedBSMs 	38148
scalar Scenario2.node[75].appl 	generatedWSAs 	0
scalar Scenario2.node[75].appl 	receivedWSAs 	0
scalar Scenario2.node[75].appl 	delayWSM 	0.000564743803
scalar Scenario2.node[75].appl 	Dist_Propa 	665.84503905867
scalar Scenario2.node[75].nic.phy80211p 	busyTime 	0.10470634146341
scalar Scenario2.node[75].nic.phy80211p 	ncollisions 	1463
scalar Scenario2.node[75].nic.mac1609_4 	ReceivedUnicastPackets 	0
scalar Scenario2.node[75].nic.mac1609_4 	ReceivedBroadcasts 	38155
scalar Scenario2.node[75].nic.mac1609_4 	SentPackets 	411
scalar Scenario2.node[75].nic.mac1609_4 	SNIRLostPackets 	3025
scalar Scenario2.node[75].nic.mac1609_4 	RXTXLostPackets 	27
scalar Scenario2.node[75].nic.mac1609_4 	TotalLostPackets 	3052
scalar Scenario2.node[75].nic.mac1609_4 	DroppedPacketsInMac 	0
scalar Scenario2.node[75].nic.mac1609_4 	TooLittleTime 	0
scalar Scenario2.node[75].nic.mac1609_4 	TimesIntoBackoff 	412
scalar Scenario2.node[75].nic.mac1609_4 	SlotsBackoff 	608
scalar Scenario2.node[75].nic.mac1609_4 	NumInternalContention 	0
scalar Scenario2.node[75].nic.mac1609_4 	totalBusyTime 	4.165198784613
scalar Scenario2.node[75].veinsmobility 	startTime 	3
scalar Scenario2.node[75].veinsmobility 	totalTime 	40
scalar Scenario2.node[75].veinsmobility 	stopTime 	44
scalar Scenario2.node[75].veinsmobility 	minSpeed 	3.7663311277212
scalar Scenario2.node[75].veinsmobility 	maxSpeed 	18.953042766952
scalar Scenario2.node[75].veinsmobility 	totalDistance 	592.6119070957
scalar Scenario2.node[75].veinsmobility 	totalCO2Emission 	136.32523109303
scalar Scenario2.node[102].appl 	generatedWSMs 	1
scalar Scenario2.node[102].appl 	receivedWSMs 	6
scalar Scenario2.node[102].appl 	generatedBSMs 	370
scalar Scenario2.node[102].appl 	receivedBSMs 	36190
scalar Scenario2.node[102].appl 	generatedWSAs 	0
scalar Scenario2.node[102].appl 	receivedWSAs 	0
scalar Scenario2.node[102].appl 	delayWSM 	0.000564713449
scalar Scenario2.node[102].appl 	Dist_Propa 	680.70566208874
scalar Scenario2.node[102].nic.phy80211p 	busyTime 	0.11000497297294
scalar Scenario2.node[102].nic.phy80211p 	ncollisions 	1378
scalar Scenario2.node[102].nic.mac1609_4 	ReceivedUnicastPackets 	0
scalar Scenario2.node[102].nic.mac1609_4 	ReceivedBroadcasts 	36196
scalar Scenario2.node[102].nic.mac1609_4 	SentPackets 	371
scalar Scenario2.node[102].nic.mac1609_4 	SNIRLostPackets 	2821
scalar Scenario2.node[102].nic.mac1609_4 	RXTXLostPackets 	13
scalar Scenario2.node[102].nic.mac1609_4 	TotalLostPackets 	2834
scalar Scenario2.node[102].nic.mac1609_4 	DroppedPacketsInMac 	0
scalar Scenario2.node[102].nic.mac1609_4 	TooLittleTime 	0
scalar Scenario2.node[102].nic.mac1609_4 	TimesIntoBackoff 	372
scalar Scenario2.node[102].nic.mac1609_4 	SlotsBackoff 	559
scalar Scenario2.node[102].nic.mac1609_4 	NumInternalContention 	0
scalar Scenario2.node[102].nic.mac1609_4 	totalBusyTime 	3.948167864314
scalar Scenario2.node[102].veinsmobility 	startTime 	7
scalar Scenario2.node[102].veinsmobility 	totalTime 	36
scalar Scenario2.node[102].veinsmobility 	stopTime 	44
scalar Scenario2.node[102].veinsmobility 	minSpeed 	2.9899711694765
scalar Scenario2.node[102].veinsmobility 	maxSpeed 	18.986820058792
scalar Scenario2.node[102].veinsmobility 	totalDistance 	561.05710037719
scalar Scenario2.node[102].veinsmobility 	totalCO2Emission 	128.11329495202
scalar Scenario2.node[10].appl 	generatedWSMs 	1
scalar Scenario2.node[10].appl 	receivedWSMs 	7
scalar Scenario2.node[10].appl 	generatedBSMs 	440
scalar Scenario2.node[10].appl 	receivedBSMs 	41177
scalar Scenario2.node[10].appl 	generatedWSAs 	0
scalar Scenario2.node[10].appl 	receivedWSAs 	0
scalar Scenario2.node[10].appl 	delayWSM 	0.000564671382
scalar Scenario2.node[10].appl 	Dist_Propa 	679.20502737565
scalar Scenario2.node[10].nic.phy80211p 	busyTime 	0.10532490909092
scalar Scenario2.node[10].nic.phy80211p 	ncollisions 	1577
scalar Scenario2.node[10].nic.mac1609_4 	ReceivedUnicastPackets 	0
scalar Scenario2.node[10].nic.mac1609_4 	ReceivedBroadcasts 	41184
scalar Scenario2.node[10].nic.mac1609_4 	SentPackets 	441
scalar Scenario2.node[10].nic.mac1609_4 	SNIRLostPackets 	3267
scalar Scenario2.node[10].nic.mac1609_4 	RXTXLostPackets 	49
scalar Scenario2.node[10].nic.mac1609_4 	TotalLostPackets 	3316
scalar Scenario2.node[10].nic.mac1609_4 	DroppedPacketsInMac 	0
scalar Scenario2.node[10].nic.mac1609_4 	TooLittleTime 	0
scalar Scenario2.node[10].nic.mac1609_4 	TimesIntoBackoff 	662
scalar Scenario2.node[10].nic.mac1609_4 	SlotsBackoff 	973
scalar Scenario2.node[10].nic.mac1609_4 	NumInternalContention 	0
scalar Scenario2.node[10].nic.mac1609_4 	totalBusyTime 	4.494985416119
scalar Scenario2.node[10].veinsmobility 	startTime 	1
scalar Scenario2.node[10].veinsmobility 	totalTime 	43
scalar Scenario2.node[10].veinsmobility 	stopTime 	45
scalar Scenario2.node[10].veinsmobility 	minSpeed 	3.6504235994233
scalar Scenario2.node[10].veinsmobility 	maxSpeed 	18.96345657906
scalar Scenario2.node[10].veinsmobility 	totalDistance 	629.30644292796
scalar Scenario2.node[10].veinsmobility 	totalCO2Emission 	142.41398201351
scalar Scenario2.node[12].appl 	generatedWSMs 	1
scalar Scenario2.node[12].appl 	receivedWSMs 	7
scalar Scenario2.node[12].appl 	generatedBSMs 	450
scalar Scenario2.node[12].appl 	receivedBSMs 	43438
scalar Scenario2.node[12].appl 	generatedWSAs 	0
scalar Scenario2.node[12].appl 	receivedWSAs 	0
scalar Scenario2.node[12].appl 	delayWSM 	0.000564599896
scalar Scenario2.node[12].appl 	Dist_Propa 	693.22158630203
scalar Scenario2.node[12].nic.phy80211p 	busyTime 	0.10834471111114
scalar Scenario2.node[12].nic.phy80211p 	ncollisions 	1585
scalar Scenario2.node[12].nic.mac1609_4 	ReceivedUnicastPackets 	0
scalar Scenario2.node[12].nic.mac1609_4 	ReceivedBroadcasts 	43445
scalar Scenario2.node[12].nic.mac1609_4 	SentPackets 	451
scalar Scenario2.node[12].nic.mac1609_4 	SNIRLostPackets 	3286
scalar Scenario2.node[12].nic.mac1609_4 	RXTXLostPackets 	128
scalar Scenario2.node[12].nic.mac1609_4 	TotalLostPackets 	3414
scalar Scenario2.node[12].nic.mac1609_4 	DroppedPacketsInMac 	0
scalar Scenario2.node[12].nic.mac1609_4 	TooLittleTime 	0
scalar Scenario2.node[12].nic.mac1609_4 	TimesIntoBackoff 	902
scalar Scenario2.node[12].nic.mac1609_4 	SlotsBackoff 	1368
scalar Scenario2.node[12].nic.mac1609_4 	NumInternalContention 	0
scalar Scenario2.node[12].nic.mac1609_4 	totalBusyTime 	4.732011286162
scalar Scenario2.node[12].veinsmobility 	startTime 	1
scalar Scenario2.node[12].veinsmobility 	totalTime 	44
scalar Scenario2.node[12].veinsmobility 	stopTime 	46
scalar Scenario2.node[12].veinsmobility 	minSpeed 	3.8852701568365
scalar Scenario2.node[12].veinsmobility 	maxSpeed 	18.996202773422
scalar Scenario2.node[12].veinsmobility 	totalDistance 	635.78531932981
scalar Scenario2.node[12].veinsmobility 	totalCO2Emission 	140.16590807303
scalar Scenario2.node[132].appl 	generatedWSMs 	1
scalar Scenario2.node[132].appl 	receivedWSMs 	8
scalar Scenario2.node[132].appl 	generatedBSMs 	340
scalar Scenario2.node[132].appl 	receivedBSMs 	35929
scalar Scenario2.node[132].appl 	generatedWSAs 	0
scalar Scenario2.node[132].appl 	receivedWSAs 	0
scalar Scenario2.node[132].appl 	delayWSM 	0.00056451795
scalar Scenario2.node[132].appl 	Dist_Propa 	742.22728541442
scalar Scenario2.node[132].nic.phy80211p 	busyTime 	0.11892964705879
scalar Scenario2.node[132].nic.phy80211p 	ncollisions 	1468
scalar Scenario2.node[132].nic.mac1609_4 	ReceivedUnicastPackets 	0
scalar Scenario2.node[132].nic.mac1609_4 	ReceivedBroadcasts 	35937
scalar Scenario2.node[132].nic.mac1609_4 	SentPackets 	341
scalar Scenario2.node[132].nic.mac1609_4 	SNIRLostPackets 	2822
scalar Scenario2.node[132].nic.mac1609_4 	RXTXLostPackets 	37
scalar Scenario2.node[132].nic.mac1609_4 	TotalLostPackets 	2859
scalar Scenario2.node[132].nic.mac1609_4 	DroppedPacketsInMac 	0
scalar Scenario2.node[132].nic.mac1609_4 	TooLittleTime 	0
scalar Scenario2.node[132].nic.mac1609_4 	TimesIntoBackoff 	342
scalar Scenario2.node[132].nic.mac1609_4 	SlotsBackoff 	485
scalar Scenario2.node[132].nic.mac1609_4 	NumInternalContention 	0
scalar Scenario2.node[132].nic.mac1609_4 	totalBusyTime 	3.927575483963
scalar Scenario2.node[132].veinsmobility 	startTime 	13
scalar Scenario2.node[132].veinsmobility 	totalTime 	33
scalar Scenario2.node[132].veinsmobility 	stopTime 	47
scalar Scenario2.node[132].veinsmobility 	minSpeed 	1.0325582238956
scalar Scenario2.node[132].veinsmobility 	maxSpeed 	18.997862700217
scalar Scenario2.node[132].veinsmobility 	totalDistance 	503.42720242976
scalar Scenario2.node[132].veinsmobility 	totalCO2Emission 	123.10429419579
scalar Scenario2.node[127].appl 	generatedWSMs 	1
scalar Scenario2.node[127].appl 	receivedWSMs 	8
scalar Scenario2.node[127].appl 	generatedBSMs 	350
scalar Scenario2.node[127].appl 	receivedBSMs 	37208
scalar Scenario2.node[127].appl 	generatedWSAs 	0
scalar Scenario2.node[127].appl 	receivedWSAs 	0
scalar Scenario2.node[127].appl 	delayWSM 	0.000564520849
scalar Scenario2.node[127].appl 	Dist_Propa 	729.99495757223
scalar Scenario2.node[127].nic.phy80211p 	busyTime 	0.11958651428569
scalar Scenario2.node[127].nic.phy80211p 	ncollisions 	1477
scalar Scenario2.node[127].nic.mac1609_4 	ReceivedUnicastPackets 	0
scalar Scenario2.node[127].nic.mac1609_4 	ReceivedBroadcasts 	37216
scalar Scenario2.node[127].nic.mac1609_4 	SentPackets 	351
scalar Scenario2.node[127].nic.mac1609_4 	SNIRLostPackets 	2883
scalar Scenario2.node[127].nic.mac1609_4 	RXTXLostPackets 	17
scalar Scenario2.node[127].nic.mac1609_4 	TotalLostPackets 	2900
scalar Scenario2.node[127].nic.mac1609_4 	DroppedPacketsInMac 	0
scalar Scenario2.node[127].nic.mac1609_4 	TooLittleTime 	0
scalar Scenario2.node[127].nic.mac1609_4 	TimesIntoBackoff 	352
scalar Scenario2.node[127].nic.mac1609_4 	SlotsBackoff 	542
scalar Scenario2.node[127].nic.mac1609_4 	NumInternalContention 	0
scalar Scenario2.node[127].nic.mac1609_4 	totalBusyTime 	4.062471065872
scalar Scenario2.node[127].veinsmobility 	startTime 	12
scalar Scenario2.node[127].veinsmobility 	totalTime 	34
scalar Scenario2.node[127].veinsmobility 	stopTime 	47
scalar Scenario2.node[127].veinsmobility 	minSpeed 	3.570553295702
scalar Scenario2.node[127].veinsmobility 	maxSpeed 	18.975364867717
scalar Scenario2.node[127].veinsmobility 	totalDistance 	531.42299839614
scalar Scenario2.node[127].veinsmobility 	totalCO2Emission 	124.39114956524
scalar Scenario2.node[137].appl 	generatedWSMs 	1
scalar Scenario2.node[137].appl 	receivedWSMs 	7
scalar Scenario2.node[137].appl 	generatedBSMs 	340
scalar Scenario2.node[137].appl 	receivedBSMs 	36216
scalar Scenario2.node[137].appl 	generatedWSAs 	0
scalar Scenario2.node[137].appl 	receivedWSAs 	0
scalar Scenario2.node[137].appl 	delayWSM 	0.000564445745
scalar Scenario2.node[137].appl 	Dist_Propa 	752.89850497086
scalar Scenario2.node[137].nic.phy80211p 	busyTime 	0.11984752941173
scalar Scenario2.node[137].nic.phy80211p 	ncollisions 	1456
scalar Scenario2.node[137].nic.mac1609_4 	ReceivedUnicastPackets 	0
scalar Scenario2.node[137].nic.mac1609_4 	ReceivedBroadcasts 	36223
scalar Scenario2.node[137].nic.mac1609_4 	SentPackets 	341
scalar Scenario2.node[137].nic.mac1609_4 	SNIRLostPackets 	2825
scalar Scenario2.node[137].nic.mac1609_4 	RXTXLostPackets 	37
scalar Scenario2.node[137].nic.mac1609_4 	TotalLostPackets 	2862
scalar Scenario2.node[137].nic.mac1609_4 	DroppedPacketsInMac 	0
scalar Scenario2.node[137].nic.mac1609_4 	TooLittleTime 	0
scalar Scenario2.node[137].nic.mac1609_4 	TimesIntoBackoff 	342
scalar Scenario2.node[137].nic.mac1609_4 	SlotsBackoff 	487
scalar Scenario2.node[137].nic.mac1609_4 	NumInternalContention 	0
scalar Scenario2.node[137].nic.mac1609_4 	totalBusyTime 	3.955957576271
scalar Scenario2.node[137].veinsmobility 	startTime 	15
scalar Scenario2.node[137].veinsmobility 	totalTime 	33
scalar Scenario2.node[137].veinsmobility 	stopTime 	49
scalar Scenario2.node[137].veinsmobility 	minSpeed 	3.7054345497005
scalar Scenario2.node[137].veinsmobility 	maxSpeed 	18.949315995281
scalar Scenario2.node[137].veinsmobility 	totalDistance 	521.67415162342
scalar Scenario2.node[137].veinsmobility 	totalCO2Emission 	120.89327527729
scalar Scenario2.node[141].appl 	generatedWSMs 	1
scalar Scenario2.node[141].appl 	receivedWSMs 	7
scalar Scenario2.node[141].appl 	generatedBSMs 	340
scalar Scenario2.node[141].appl 	receivedBSMs 	36438
scalar Scenario2.node[141].appl 	generatedWSAs 	0
scalar Scenario2.node[141].appl 	receivedWSAs 	0
scalar Scenario2.node[141].appl 	delayWSM 	0.000564445559
scalar Scenario2.node[141].appl 	Dist_Propa 	752.19734561178
scalar Scenario2.node[141].nic.phy80211p 	busyTime 	0.12045929411762
scalar Scenario2.node[141].nic.phy80211p 	ncollisions 	1422
scalar Scenario2.node[141].nic.mac1609_4 	ReceivedUnicastPackets 	0
scalar Scenario2.node[141].nic.mac1609_4 	ReceivedBroadcasts 	36445
scalar Scenario2.node[141].nic.mac1609_4 	SentPackets 	341
scalar Scenario2.node[141].nic.mac1609_4 	SNIRLostPackets 	2803
scalar Scenario2.node[141].nic.mac1609_4 	RXTXLostPackets 	37
scalar Scenario2.node[141].nic.mac1609_4 	TotalLostPackets 	2840
scalar Scenario2.node[141].nic.mac1609_4 	DroppedPacketsInMac 	0
scalar Scenario2.node[141].nic.mac1609_4 	TooLittleTime 	0
scalar Scenario2.node[141].nic.mac1609_4 	TimesIntoBackoff 	342
scalar Scenario2.node[141].nic.mac1609_4 	SlotsBackoff 	515
scalar Scenario2.node[141].nic.mac1609_4 	NumInternalContention 	0
scalar Scenario2.node[141].nic.mac1609_4 	totalBusyTime 	3.975994845654
scalar Scenario2.node[141].veinsmobility 	startTime 	15
scalar Scenario2.node[141].veinsmobility 	totalTime 	33
scalar Scenario2.node[141].veinsmobility 	stopTime 	49
scalar Scenario2.node[141].veinsmobility 	minSpeed 	2.4699518346809
scalar Scenario2.node[141].veinsmobility 	maxSpeed 	18.998616740918
scalar Scenario2.node[141].veinsmobility 	totalDistance 	536.39102144913
scalar Scenario2.node[141].veinsmobility 	totalCO2Emission 	124.36501758974
scalar Scenario2.node[105].appl 	generatedWSMs 	1
scalar Scenario2.node[105].appl 	receivedWSMs 	8
scalar Scenario2.node[105].appl 	generatedBSMs 	420
scalar Scenario2.node[105].appl 	receivedBSMs 	45657
scalar Scenario2.node[105].appl 	generatedWSAs 	0
scalar Scenario2.node[105].appl 	receivedWSAs 	0
scalar Scenario2.node[105].appl 	delayWSM 	0.000273051413
scalar Scenario2.node[105].appl 	Dist_Propa 	488.78747738736
scalar Scenario2.node[105].nic.phy80211p 	busyTime 	0.12296476190482
scalar Scenario2.node[105].nic.phy80211p 	ncollisions 	1820
scalar Scenario2.node[105].nic.mac1609_4 	ReceivedUnicastPackets 	0
scalar Scenario2.node[105].nic.mac1609_4 	ReceivedBroadcasts 	45665
scalar Scenario2.node[105].nic.mac1609_4 	SentPackets 	421
scalar Scenario2.node[105].nic.mac1609_4 	SNIRLostPackets 	3840
scalar Scenario2.node[105].nic.mac1609_4 	RXTXLostPackets 	38
scalar Scenario2.node[105].nic.mac1609_4 	TotalLostPackets 	3878
scalar Scenario2.node[105].nic.mac1609_4 	DroppedPacketsInMac 	0
scalar Scenario2.node[105].nic.mac1609_4 	TooLittleTime 	0
scalar Scenario2.node[105].nic.mac1609_4 	TimesIntoBackoff 	422
scalar Scenario2.node[105].nic.mac1609_4 	SlotsBackoff 	634
scalar Scenario2.node[105].nic.mac1609_4 	NumInternalContention 	0
scalar Scenario2.node[105].nic.mac1609_4 	totalBusyTime 	4.985339215672
scalar Scenario2.node[105].veinsmobility 	startTime 	7
scalar Scenario2.node[105].veinsmobility 	totalTime 	41
scalar Scenario2.node[105].veinsmobility 	stopTime 	49
scalar Scenario2.node[105].veinsmobility 	minSpeed 	0.79846306713479
scalar Scenario2.node[105].veinsmobility 	maxSpeed 	18.9987192666
scalar Scenario2.node[105].veinsmobility 	totalDistance 	574.23690866301
scalar Scenario2.node[105].veinsmobility 	totalCO2Emission 	139.39240827924
scalar Scenario2.node[163].appl 	generatedWSMs 	1
scalar Scenario2.node[163].appl 	receivedWSMs 	6
scalar Scenario2.node[163].appl 	generatedBSMs 	320
scalar Scenario2.node[163].appl 	receivedBSMs 	35152
scalar Scenario2.node[163].appl 	generatedWSAs 	0
scalar Scenario2.node[163].appl 	receivedWSAs 	0
scalar Scenario2.node[163].appl 	delayWSM 	0.0005643471
scalar Scenario2.node[163].appl 	Dist_Propa 	794.07504768646
scalar Scenario2.node[163].nic.phy80211p 	busyTime 	0.12361624999996
scalar Scenario2.node[163].nic.phy80211p 	ncollisions 	1303
scalar Scenario2.node[163].nic.mac1609_4 	ReceivedUnicastPackets 	0
scalar Scenario2.node[163].nic.mac1609_4 	ReceivedBroadcasts 	35158
scalar Scenario2.node[163].nic.mac1609_4 	SentPackets 	321
scalar Scenario2.node[163].nic.mac1609_4 	SNIRLostPackets 	2687
scalar Scenario2.node[163].nic.mac1609_4 	RXTXLostPackets 	0
scalar Scenario2.node[163].nic.mac1609_4 	TotalLostPackets 	2687
scalar Scenario2.node[163].nic.mac1609_4 	DroppedPacketsInMac 	0
scalar Scenario2.node[163].nic.mac1609_4 	TooLittleTime 	0
scalar Scenario2.node[163].nic.mac1609_4 	TimesIntoBackoff 	561
scalar Scenario2.node[163].nic.mac1609_4 	SlotsBackoff 	819
scalar Scenario2.node[163].nic.mac1609_4 	NumInternalContention 	0
scalar Scenario2.node[163].nic.mac1609_4 	totalBusyTime 	3.827185880632
scalar Scenario2.node[163].veinsmobility 	startTime 	18
scalar Scenario2.node[163].veinsmobility 	totalTime 	31
scalar Scenario2.node[163].veinsmobility 	stopTime 	50
scalar Scenario2.node[163].veinsmobility 	minSpeed 	3.2362021176079
scalar Scenario2.node[163].veinsmobility 	maxSpeed 	18.995516344768
scalar Scenario2.node[163].veinsmobility 	totalDistance 	507.69244103002
scalar Scenario2.node[163].veinsmobility 	totalCO2Emission 	119.51915105506
scalar Scenario2.node[164].appl 	generatedWSMs 	1
scalar Scenario2.node[164].appl 	receivedWSMs 	8
scalar Scenario2.node[164].appl 	generatedBSMs 	330
scalar Scenario2.node[164].appl 	receivedBSMs 	37527
scalar Scenario2.node[164].appl 	generatedWSAs 	0
scalar Scenario2.node[164].appl 	receivedWSAs 	0
scalar Scenario2.node[164].appl 	delayWSM 	0.000272973368
scalar Scenario2.node[164].appl 	Dist_Propa 	526.79441376929
scalar Scenario2.node[164].nic.phy80211p 	busyTime 	0.12889696969695
scalar Scenario2.node[164].nic.phy80211p 	ncollisions 	1588
scalar Scenario2.node[164].nic.mac1609_4 	ReceivedUnicastPackets 	0
scalar Scenario2.node[164].nic.mac1609_4 	ReceivedBroadcasts 	37535
scalar Scenario2.node[164].nic.mac1609_4 	SentPackets 	331
scalar Scenario2.node[164].nic.mac1609_4 	SNIRLostPackets 	3205
scalar Scenario2.node[164].nic.mac1609_4 	RXTXLostPackets 	42
scalar Scenario2.node[164].nic.mac1609_4 	TotalLostPackets 	3247
scalar Scenario2.node[164].nic.mac1609_4 	DroppedPacketsInMac 	0
scalar Scenario2.node[164].nic.mac1609_4 	TooLittleTime 	0
scalar Scenario2.node[164].nic.mac1609_4 	TimesIntoBackoff 	332
scalar Scenario2.node[164].nic.mac1609_4 	SlotsBackoff 	491
scalar Scenario2.node[164].nic.mac1609_4 	NumInternalContention 	0
scalar Scenario2.node[164].nic.mac1609_4 	totalBusyTime 	4.105824828554
scalar Scenario2.node[164].veinsmobility 	startTime 	18
scalar Scenario2.node[164].veinsmobility 	totalTime 	32
scalar Scenario2.node[164].veinsmobility 	stopTime 	51
scalar Scenario2.node[164].veinsmobility 	minSpeed 	2.6560707084217
scalar Scenario2.node[164].veinsmobility 	maxSpeed 	18.995079022406
scalar Scenario2.node[164].veinsmobility 	totalDistance 	520.46900373988
scalar Scenario2.node[164].veinsmobility 	totalCO2Emission 	121.70739795369
scalar Scenario2.node[151].appl 	generatedWSMs 	1
scalar Scenario2.node[151].appl 	receivedWSMs 	7
scalar Scenario2.node[151].appl 	generatedBSMs 	350
scalar Scenario2.node[151].appl 	receivedBSMs 	40210
scalar Scenario2.node[151].appl 	generatedWSAs 	0
scalar Scenario2.node[151].appl 	receivedWSAs 	0
scalar Scenario2.node[151].appl 	delayWSM 	0.000273263717
scalar Scenario2.node[151].appl 	Dist_Propa 	188.30540535788
scalar Scenario2.node[151].nic.phy80211p 	busyTime 	0.12898262857144
scalar Scenario2.node[151].nic.phy80211p 	ncollisions 	1443
scalar Scenario2.node[151].nic.mac1609_4 	ReceivedUnicastPackets 	0
scalar Scenario2.node[151].nic.mac1609_4 	ReceivedBroadcasts 	40217
scalar Scenario2.node[151].nic.mac1609_4 	SentPackets 	351
scalar Scenario2.node[151].nic.mac1609_4 	SNIRLostPackets 	2990
scalar Scenario2.node[151].nic.mac1609_4 	RXTXLostPackets 	86
scalar Scenario2.node[151].nic.mac1609_4 	TotalLostPackets 	3076
scalar Scenario2.node[151].nic.mac1609_4 	DroppedPacketsInMac 	0
scalar Scenario2.node[151].nic.mac1609_4 	TooLittleTime 	0
scalar Scenario2.node[151].nic.mac1609_4 	TimesIntoBackoff 	401
scalar Scenario2.node[151].nic.mac1609_4 	SlotsBackoff 	616
scalar Scenario2.node[151].nic.mac1609_4 	NumInternalContention 	0
scalar Scenario2.node[151].nic.mac1609_4 	totalBusyTime 	4.37251856183
scalar Scenario2.node[151].veinsmobility 	startTime 	16
scalar Scenario2.node[151].veinsmobility 	totalTime 	34
scalar Scenario2.node[151].veinsmobility 	stopTime 	51
scalar Scenario2.node[151].veinsmobility 	minSpeed 	1.4619825295685
scalar Scenario2.node[151].veinsmobility 	maxSpeed 	18.99749420386
scalar Scenario2.node[151].veinsmobility 	totalDistance 	519.28776174372
scalar Scenario2.node[151].veinsmobility 	totalCO2Emission 	125.8211529421
scalar Scenario2.node[145].appl 	generatedWSMs 	1
scalar Scenario2.node[145].appl 	receivedWSMs 	7
scalar Scenario2.node[145].appl 	generatedBSMs 	350
scalar Scenario2.node[145].appl 	receivedBSMs 	40193
scalar Scenario2.node[145].appl 	generatedWSAs 	0
scalar Scenario2.node[145].appl 	receivedWSAs 	0
scalar Scenario2.node[145].appl 	delayWSM 	0.000273264191
scalar Scenario2.node[145].appl 	Dist_Propa 	190.86144924829
scalar Scenario2.node[145].nic.phy80211p 	busyTime 	0.12938674285715
scalar Scenario2.node[145].nic.phy80211p 	ncollisions 	1500
scalar Scenario2.node[145].nic.mac1609_4 	ReceivedUnicastPackets 	0
scalar Scenario2.node[145].nic.mac1609_4 	ReceivedBroadcasts 	40200
scalar Scenario2.node[145].nic.mac1609_4 	SentPackets 	351
scalar Scenario2.node[145].nic.mac1609_4 	SNIRLostPackets 	3143
scalar Scenario2.node[145].nic.mac1609_4 	RXTXLostPackets 	0
scalar Scenario2.node[145].nic.mac1609_4 	TotalLostPackets 	3143
scalar Scenario2.node[145].nic.mac1609_4 	DroppedPacketsInMac 	0
scalar Scenario2.node[145].nic.mac1609_4 	TooLittleTime 	0
scalar Scenario2.node[145].nic.mac1609_4 	TimesIntoBackoff 	352
scalar Scenario2.node[145].nic.mac1609_4 	SlotsBackoff 	554
scalar Scenario2.node[145].nic.mac1609_4 	NumInternalContention 	0
scalar Scenario2.node[145].nic.mac1609_4 	totalBusyTime 	4.375805323021
scalar Scenario2.node[145].veinsmobility 	startTime 	16
scalar Scenario2.node[145].veinsmobility 	totalTime 	34
scalar Scenario2.node[145].veinsmobility 	stopTime 	51
scalar Scenario2.node[145].veinsmobility 	minSpeed 	3.482900294836
scalar Scenario2.node[145].veinsmobility 	maxSpeed 	18.993171909307
scalar Scenario2.node[145].veinsmobility 	totalDistance 	528.29977957109
scalar Scenario2.node[145].veinsmobility 	totalCO2Emission 	124.25854551765
scalar Scenario2.node[30].appl 	generatedWSMs 	1
scalar Scenario2.node[30].appl 	receivedWSMs 	8
scalar Scenario2.node[30].appl 	generatedBSMs 	510
scalar Scenario2.node[30].appl 	receivedBSMs 	55406
scalar Scenario2.node[30].appl 	generatedWSAs 	0
scalar Scenario2.node[30].appl 	receivedWSAs 	0
scalar Scenario2.node[30].appl 	delayWSM 	0.000272939641
scalar Scenario2.node[30].appl 	Dist_Propa 	547.21728368944
scalar Scenario2.node[30].nic.phy80211p 	busyTime 	0.1216688627452
scalar Scenario2.node[30].nic.phy80211p 	ncollisions 	1750
scalar Scenario2.node[30].nic.mac1609_4 	ReceivedUnicastPackets 	0
scalar Scenario2.node[30].nic.mac1609_4 	ReceivedBroadcasts 	55414
scalar Scenario2.node[30].nic.mac1609_4 	SentPackets 	511
scalar Scenario2.node[30].nic.mac1609_4 	SNIRLostPackets 	4077
scalar Scenario2.node[30].nic.mac1609_4 	RXTXLostPackets 	41
scalar Scenario2.node[30].nic.mac1609_4 	TotalLostPackets 	4118
scalar Scenario2.node[30].nic.mac1609_4 	DroppedPacketsInMac 	0
scalar Scenario2.node[30].nic.mac1609_4 	TooLittleTime 	0
scalar Scenario2.node[30].nic.mac1609_4 	TimesIntoBackoff 	512
scalar Scenario2.node[30].nic.mac1609_4 	SlotsBackoff 	817
scalar Scenario2.node[30].nic.mac1609_4 	NumInternalContention 	0
scalar Scenario2.node[30].nic.mac1609_4 	totalBusyTime 	6.000504581809
scalar Scenario2.node[30].veinsmobility 	startTime 	1
scalar Scenario2.node[30].veinsmobility 	totalTime 	50
scalar Scenario2.node[30].veinsmobility 	stopTime 	52
scalar Scenario2.node[30].veinsmobility 	minSpeed 	2.6830987371857
scalar Scenario2.node[30].veinsmobility 	maxSpeed 	18.998360855293
scalar Scenario2.node[30].veinsmobility 	totalDistance 	840.56722214892
scalar Scenario2.node[30].veinsmobility 	totalCO2Emission 	180.75164650604
scalar Scenario2.node[7].appl 	generatedWSMs 	1
scalar Scenario2.node[7].appl 	receivedWSMs 	7
scalar Scenario2.node[7].appl 	generatedBSMs 	520
scalar Scenario2.node[7].appl 	receivedBSMs 	55936
scalar Scenario2.node[7].appl 	generatedWSAs 	0
scalar Scenario2.node[7].appl 	receivedWSAs 	0
scalar Scenario2.node[7].appl 	delayWSM 	0.000273198386
scalar Scenario2.node[7].appl 	Dist_Propa 	183.93798667698
scalar Scenario2.node[7].nic.phy80211p 	busyTime 	0.12111400000011
scalar Scenario2.node[7].nic.phy80211p 	ncollisions 	1948
scalar Scenario2.node[7].nic.mac1609_4 	ReceivedUnicastPackets 	0
scalar Scenario2.node[7].nic.mac1609_4 	ReceivedBroadcasts 	55943
scalar Scenario2.node[7].nic.mac1609_4 	SentPackets 	521
scalar Scenario2.node[7].nic.mac1609_4 	SNIRLostPackets 	4406
scalar Scenario2.node[7].nic.mac1609_4 	RXTXLostPackets 	0
scalar Scenario2.node[7].nic.mac1609_4 	TotalLostPackets 	4406
scalar Scenario2.node[7].nic.mac1609_4 	DroppedPacketsInMac 	0
scalar Scenario2.node[7].nic.mac1609_4 	TooLittleTime 	0
scalar Scenario2.node[7].nic.mac1609_4 	TimesIntoBackoff 	521
scalar Scenario2.node[7].nic.mac1609_4 	SlotsBackoff 	820
scalar Scenario2.node[7].nic.mac1609_4 	NumInternalContention 	0
scalar Scenario2.node[7].nic.mac1609_4 	totalBusyTime 	6.077203294001
scalar Scenario2.node[7].veinsmobility 	startTime 	1
scalar Scenario2.node[7].veinsmobility 	totalTime 	51
scalar Scenario2.node[7].veinsmobility 	stopTime 	53
scalar Scenario2.node[7].veinsmobility 	minSpeed 	3.4814017046965
scalar Scenario2.node[7].veinsmobility 	maxSpeed 	18.941884985482
scalar Scenario2.node[7].veinsmobility 	totalDistance 	681.4852853963
scalar Scenario2.node[7].veinsmobility 	totalCO2Emission 	169.58589405808
scalar Scenario2.node[172].appl 	generatedWSMs 	1
scalar Scenario2.node[172].appl 	receivedWSMs 	8
scalar Scenario2.node[172].appl 	generatedBSMs 	330
scalar Scenario2.node[172].appl 	receivedBSMs 	37487
scalar Scenario2.node[172].appl 	generatedWSAs 	0
scalar Scenario2.node[172].appl 	receivedWSAs 	0
scalar Scenario2.node[172].appl 	delayWSM 	0.000273166454
scalar Scenario2.node[172].appl 	Dist_Propa 	218.07971375174
scalar Scenario2.node[172].nic.phy80211p 	busyTime 	0.12794739393937
scalar Scenario2.node[172].nic.phy80211p 	ncollisions 	1402
scalar Scenario2.node[172].nic.mac1609_4 	ReceivedUnicastPackets 	0
scalar Scenario2.node[172].nic.mac1609_4 	ReceivedBroadcasts 	37495
scalar Scenario2.node[172].nic.mac1609_4 	SentPackets 	331
scalar Scenario2.node[172].nic.mac1609_4 	SNIRLostPackets 	2940
scalar Scenario2.node[172].nic.mac1609_4 	RXTXLostPackets 	57
scalar Scenario2.node[172].nic.mac1609_4 	TotalLostPackets 	2997
scalar Scenario2.node[172].nic.mac1609_4 	DroppedPacketsInMac 	0
scalar Scenario2.node[172].nic.mac1609_4 	TooLittleTime 	0
scalar Scenario2.node[172].nic.mac1609_4 	TimesIntoBackoff 	582
scalar Scenario2.node[172].nic.mac1609_4 	SlotsBackoff 	895
scalar Scenario2.node[172].nic.mac1609_4 	NumInternalContention 	0
scalar Scenario2.node[172].nic.mac1609_4 	totalBusyTime 	4.081836084537
scalar Scenario2.node[172].veinsmobility 	startTime 	20
scalar Scenario2.node[172].veinsmobility 	totalTime 	32
scalar Scenario2.node[172].veinsmobility 	stopTime 	53
scalar Scenario2.node[172].veinsmobility 	minSpeed 	2.4127571361848
scalar Scenario2.node[172].veinsmobility 	maxSpeed 	18.994554119785
scalar Scenario2.node[172].veinsmobility 	totalDistance 	522.38118095875
scalar Scenario2.node[172].veinsmobility 	totalCO2Emission 	122.12195354617
scalar Scenario2.node[1].appl 	generatedWSMs 	1
scalar Scenario2.node[1].appl 	receivedWSMs 	7
scalar Scenario2.node[1].appl 	generatedBSMs 	530
scalar Scenario2.node[1].appl 	receivedBSMs 	58117
scalar Scenario2.node[1].appl 	generatedWSAs 	0
scalar Scenario2.node[1].appl 	receivedWSAs 	0
scalar Scenario2.node[1].appl 	delayWSM 	0.000273134981
scalar Scenario2.node[1].appl 	Dist_Propa 	179.16403219133
scalar Scenario2.node[1].nic.phy80211p 	busyTime 	0.12351441509446
scalar Scenario2.node[1].nic.phy80211p 	ncollisions 	2010
scalar Scenario2.node[1].nic.mac1609_4 	ReceivedUnicastPackets 	0
scalar Scenario2.node[1].nic.mac1609_4 	ReceivedBroadcasts 	58124
scalar Scenario2.node[1].nic.mac1609_4 	SentPackets 	531
scalar Scenario2.node[1].nic.mac1609_4 	SNIRLostPackets 	4603
scalar Scenario2.node[1].nic.mac1609_4 	RXTXLostPackets 	0
scalar Scenario2.node[1].nic.mac1609_4 	TotalLostPackets 	4603
scalar Scenario2.node[1].nic.mac1609_4 	DroppedPacketsInMac 	0
scalar Scenario2.node[1].nic.mac1609_4 	TooLittleTime 	0
scalar Scenario2.node[1].nic.mac1609_4 	TimesIntoBackoff 	531
scalar Scenario2.node[1].nic.mac1609_4 	SlotsBackoff 	800
scalar Scenario2.node[1].nic.mac1609_4 	NumInternalContention 	0
scalar Scenario2.node[1].nic.mac1609_4 	totalBusyTime 	6.31148358369
scalar Scenario2.node[1].veinsmobility 	startTime 	1
scalar Scenario2.node[1].veinsmobility 	totalTime 	52
scalar Scenario2.node[1].veinsmobility 	stopTime 	54
scalar Scenario2.node[1].veinsmobility 	minSpeed 	3.7822135175928
scalar Scenario2.node[1].veinsmobility 	maxSpeed 	18.973847482234
scalar Scenario2.node[1].veinsmobility 	totalDistance 	704.43927912732
scalar Scenario2.node[1].veinsmobility 	totalCO2Emission 	171.29382234949
scalar Scenario2.node[0].appl 	generatedWSMs 	1
scalar Scenario2.node[0].appl 	receivedWSMs 	8
scalar Scenario2.node[0].appl 	generatedBSMs 	540
scalar Scenario2.node[0].appl 	receivedBSMs 	60166
scalar Scenario2.node[0].appl 	generatedWSAs 	0
scalar Scenario2.node[0].appl 	receivedWSAs 	0
scalar Scenario2.node[0].appl 	delayWSM 	0.000273074416
scalar Scenario2.node[0].appl 	Dist_Propa 	174.10324431344
scalar Scenario2.node[0].nic.phy80211p 	busyTime 	0.12506548148161
scalar Scenario2.node[0].nic.phy80211p 	ncollisions 	1968
scalar Scenario2.node[0].nic.mac1609_4 	ReceivedUnicastPackets 	0
scalar Scenario2.node[0].nic.mac1609_4 	ReceivedBroadcasts 	60174
scalar Scenario2.node[0].nic.mac1609_4 	SentPackets 	541
scalar Scenario2.node[0].nic.mac1609_4 	SNIRLostPackets 	4594
scalar Scenario2.node[0].nic.mac1609_4 	RXTXLostPackets 	44
scalar Scenario2.node[0].nic.mac1609_4 	TotalLostPackets 	4638
scalar Scenario2.node[0].nic.mac1609_4 	DroppedPacketsInMac 	0
scalar Scenario2.node[0].nic.mac1609_4 	TooLittleTime 	0
scalar Scenario2.node[0].nic.mac1609_4 	TimesIntoBackoff 	542
scalar Scenario2.node[0].nic.mac1609_4 	SlotsBackoff 	805
scalar Scenario2.node[0].nic.mac1609_4 	NumInternalContention 	0
scalar Scenario2.node[0].nic.mac1609_4 	totalBusyTime 	6.521365659128
scalar Scenario2.node[0].veinsmobility 	startTime 	1
scalar Scenario2.node[0].veinsmobility 	totalTime 	53
scalar Scenario2.node[0].veinsmobility 	stopTime 	55
scalar Scenario2.node[0].veinsmobility 	minSpeed 	4.0518554631622
scalar Scenario2.node[0].veinsmobility 	maxSpeed 	18.978534762523
scalar Scenario2.node[0].veinsmobility 	totalDistance 	722.21584162014
scalar Scenario2.node[0].veinsmobility 	totalCO2Emission 	172.20829987187
scalar Scenario2.node[187].appl 	generatedWSMs 	1
scalar Scenario2.node[187].appl 	receivedWSMs 	9
scalar Scenario2.node[187].appl 	generatedBSMs 	320
scalar Scenario2.node[187].appl 	receivedBSMs 	36397
scalar Scenario2.node[187].appl 	generatedWSAs 	0
scalar Scenario2.node[187].appl 	receivedWSAs 	0
scalar Scenario2.node[187].appl 	delayWSM 	0.000272999174
scalar Scenario2.node[187].appl 	Dist_Propa 	97.181615332872
scalar Scenario2.node[187].nic.phy80211p 	busyTime 	0.12926774999997
scalar Scenario2.node[187].nic.phy80211p 	ncollisions 	1509
scalar Scenario2.node[187].nic.mac1609_4 	ReceivedUnicastPackets 	0
scalar Scenario2.node[187].nic.mac1609_4 	ReceivedBroadcasts 	36406
scalar Scenario2.node[187].nic.mac1609_4 	SentPackets 	321
scalar Scenario2.node[187].nic.mac1609_4 	SNIRLostPackets 	3189
scalar Scenario2.node[187].nic.mac1609_4 	RXTXLostPackets 	42
scalar Scenario2.node[187].nic.mac1609_4 	TotalLostPackets 	3231
scalar Scenario2.node[187].nic.mac1609_4 	DroppedPacketsInMac 	0
scalar Scenario2.node[187].nic.mac1609_4 	TooLittleTime 	0
scalar Scenario2.node[187].nic.mac1609_4 	TimesIntoBackoff 	323
scalar Scenario2.node[187].nic.mac1609_4 	SlotsBackoff 	496
scalar Scenario2.node[187].nic.mac1609_4 	NumInternalContention 	0
scalar Scenario2.node[187].nic.mac1609_4 	totalBusyTime 	3.97865756863
scalar Scenario2.node[187].veinsmobility 	startTime 	24
scalar Scenario2.node[187].veinsmobility 	totalTime 	31
scalar Scenario2.node[187].veinsmobility 	stopTime 	56
scalar Scenario2.node[187].veinsmobility 	minSpeed 	3.5479495325158
scalar Scenario2.node[187].veinsmobility 	maxSpeed 	18.989325714761
scalar Scenario2.node[187].veinsmobility 	totalDistance 	512.82987526149
scalar Scenario2.node[187].veinsmobility 	totalCO2Emission 	119.00436191503
scalar Scenario2.node[59].appl 	generatedWSMs 	1
scalar Scenario2.node[59].appl 	receivedWSMs 	8
scalar Scenario2.node[59].appl 	generatedBSMs 	540
scalar Scenario2.node[59].appl 	receivedBSMs 	61789
scalar Scenario2.node[59].appl 	generatedWSAs 	0
scalar Scenario2.node[59].appl 	receivedWSAs 	0
scalar Scenario2.node[59].appl 	delayWSM 	0.000273016348
scalar Scenario2.node[59].appl 	Dist_Propa 	165.13211160877
scalar Scenario2.node[59].nic.phy80211p 	busyTime 	0.12819837037051
scalar Scenario2.node[59].nic.phy80211p 	ncollisions 	1978
scalar Scenario2.node[59].nic.mac1609_4 	ReceivedUnicastPackets 	0
scalar Scenario2.node[59].nic.mac1609_4 	ReceivedBroadcasts 	61797
scalar Scenario2.node[59].nic.mac1609_4 	SentPackets 	541
scalar Scenario2.node[59].nic.mac1609_4 	SNIRLostPackets 	4594
scalar Scenario2.node[59].nic.mac1609_4 	RXTXLostPackets 	166
scalar Scenario2.node[59].nic.mac1609_4 	TotalLostPackets 	4760
scalar Scenario2.node[59].nic.mac1609_4 	DroppedPacketsInMac 	0
scalar Scenario2.node[59].nic.mac1609_4 	TooLittleTime 	0
scalar Scenario2.node[59].nic.mac1609_4 	TimesIntoBackoff 	864
scalar Scenario2.node[59].nic.mac1609_4 	SlotsBackoff 	1352
scalar Scenario2.node[59].nic.mac1609_4 	NumInternalContention 	0
scalar Scenario2.node[59].nic.mac1609_4 	totalBusyTime 	6.691197800962
scalar Scenario2.node[59].veinsmobility 	startTime 	2
scalar Scenario2.node[59].veinsmobility 	totalTime 	53
scalar Scenario2.node[59].veinsmobility 	stopTime 	56
scalar Scenario2.node[59].veinsmobility 	minSpeed 	3.6013252442564
scalar Scenario2.node[59].veinsmobility 	maxSpeed 	18.987841719773
scalar Scenario2.node[59].veinsmobility 	totalDistance 	716.20343049081
scalar Scenario2.node[59].veinsmobility 	totalCO2Emission 	168.97854168429
scalar Scenario2.node[79].appl 	generatedWSMs 	1
scalar Scenario2.node[79].appl 	receivedWSMs 	7
scalar Scenario2.node[79].appl 	generatedBSMs 	530
scalar Scenario2.node[79].appl 	receivedBSMs 	59353
scalar Scenario2.node[79].appl 	generatedWSAs 	0
scalar Scenario2.node[79].appl 	receivedWSAs 	0
scalar Scenario2.node[79].appl 	delayWSM 	0.000272852907
scalar Scenario2.node[79].appl 	Dist_Propa 	427.71731748877
scalar Scenario2.node[79].nic.phy80211p 	busyTime 	0.12678430188693
scalar Scenario2.node[79].nic.phy80211p 	ncollisions 	2486
scalar Scenario2.node[79].nic.mac1609_4 	ReceivedUnicastPackets 	0
scalar Scenario2.node[79].nic.mac1609_4 	ReceivedBroadcasts 	59360
scalar Scenario2.node[79].nic.mac1609_4 	SentPackets 	531
scalar Scenario2.node[79].nic.mac1609_4 	SNIRLostPackets 	5074
scalar Scenario2.node[79].nic.mac1609_4 	RXTXLostPackets 	43
scalar Scenario2.node[79].nic.mac1609_4 	TotalLostPackets 	5117
scalar Scenario2.node[79].nic.mac1609_4 	DroppedPacketsInMac 	0
scalar Scenario2.node[79].nic.mac1609_4 	TooLittleTime 	0
scalar Scenario2.node[79].nic.mac1609_4 	TimesIntoBackoff 	532
scalar Scenario2.node[79].nic.mac1609_4 	SlotsBackoff 	781
scalar Scenario2.node[79].nic.mac1609_4 	NumInternalContention 	0
scalar Scenario2.node[79].nic.mac1609_4 	totalBusyTime 	6.489405869641
scalar Scenario2.node[79].veinsmobility 	startTime 	3
scalar Scenario2.node[79].veinsmobility 	totalTime 	52
scalar Scenario2.node[79].veinsmobility 	stopTime 	56
scalar Scenario2.node[79].veinsmobility 	minSpeed 	2.4267099683262
scalar Scenario2.node[79].veinsmobility 	maxSpeed 	18.985454387709
scalar Scenario2.node[79].veinsmobility 	totalDistance 	605.76482859178
scalar Scenario2.node[79].veinsmobility 	totalCO2Emission 	160.49542827298
scalar Scenario2.node[184].appl 	generatedWSMs 	1
scalar Scenario2.node[184].appl 	receivedWSMs 	8
scalar Scenario2.node[184].appl 	generatedBSMs 	340
scalar Scenario2.node[184].appl 	receivedBSMs 	39993
scalar Scenario2.node[184].appl 	generatedWSAs 	0
scalar Scenario2.node[184].appl 	receivedWSAs 	0
scalar Scenario2.node[184].appl 	delayWSM 	0.000272940087
scalar Scenario2.node[184].appl 	Dist_Propa 	46.200071672497
scalar Scenario2.node[184].nic.phy80211p 	busyTime 	0.1337185882353
scalar Scenario2.node[184].nic.phy80211p 	ncollisions 	1700
scalar Scenario2.node[184].nic.mac1609_4 	ReceivedUnicastPackets 	0
scalar Scenario2.node[184].nic.mac1609_4 	ReceivedBroadcasts 	40001
scalar Scenario2.node[184].nic.mac1609_4 	SentPackets 	341
scalar Scenario2.node[184].nic.mac1609_4 	SNIRLostPackets 	3535
scalar Scenario2.node[184].nic.mac1609_4 	RXTXLostPackets 	46
scalar Scenario2.node[184].nic.mac1609_4 	TotalLostPackets 	3581
scalar Scenario2.node[184].nic.mac1609_4 	DroppedPacketsInMac 	0
scalar Scenario2.node[184].nic.mac1609_4 	TooLittleTime 	0
scalar Scenario2.node[184].nic.mac1609_4 	TimesIntoBackoff 	342
scalar Scenario2.node[184].nic.mac1609_4 	SlotsBackoff 	537
scalar Scenario2.node[184].nic.mac1609_4 	NumInternalContention 	0
scalar Scenario2.node[184].nic.mac1609_4 	totalBusyTime 	4.374629863686
scalar Scenario2.node[184].veinsmobility 	startTime 	23
scalar Scenario2.node[184].veinsmobility 	totalTime 	33
scalar Scenario2.node[184].veinsmobility 	stopTime 	57
scalar Scenario2.node[184].veinsmobility 	minSpeed 	1.4962625184391
scalar Scenario2.node[184].veinsmobility 	maxSpeed 	18.979892871417
scalar Scenario2.node[184].veinsmobility 	totalDistance 	514.97323348459
scalar Scenario2.node[184].veinsmobility 	totalCO2Emission 	122.9472972326
scalar Scenario2.node[13].appl 	generatedWSMs 	1
scalar Scenario2.node[13].appl 	receivedWSMs 	8
scalar Scenario2.node[13].appl 	generatedBSMs 	560
scalar Scenario2.node[13].appl 	receivedBSMs 	64204
scalar Scenario2.node[13].appl 	generatedWSAs 	0
scalar Scenario2.node[13].appl 	receivedWSAs 	0
scalar Scenario2.node[13].appl 	delayWSM 	0.000272960709
scalar Scenario2.node[13].appl 	Dist_Propa 	151.29448177665
scalar Scenario2.node[13].nic.phy80211p 	busyTime 	0.12839285714301
scalar Scenario2.node[13].nic.phy80211p 	ncollisions 	1875
scalar Scenario2.node[13].nic.mac1609_4 	ReceivedUnicastPackets 	0
scalar Scenario2.node[13].nic.mac1609_4 	ReceivedBroadcasts 	64212
scalar Scenario2.node[13].nic.mac1609_4 	SentPackets 	561
scalar Scenario2.node[13].nic.mac1609_4 	SNIRLostPackets 	4738
scalar Scenario2.node[13].nic.mac1609_4 	RXTXLostPackets 	41
scalar Scenario2.node[13].nic.mac1609_4 	TotalLostPackets 	4779
scalar Scenario2.node[13].nic.mac1609_4 	DroppedPacketsInMac 	0
scalar Scenario2.node[13].nic.mac1609_4 	TooLittleTime 	0
scalar Scenario2.node[13].nic.mac1609_4 	TimesIntoBackoff 	562
scalar Scenario2.node[13].nic.mac1609_4 	SlotsBackoff 	837
scalar Scenario2.node[13].nic.mac1609_4 	NumInternalContention 	0
scalar Scenario2.node[13].nic.mac1609_4 	totalBusyTime 	6.933874890602
scalar Scenario2.node[13].veinsmobility 	startTime 	1
scalar Scenario2.node[13].veinsmobility 	totalTime 	55
scalar Scenario2.node[13].veinsmobility 	stopTime 	57
scalar Scenario2.node[13].veinsmobility 	minSpeed 	3.7319341546602
scalar Scenario2.node[13].veinsmobility 	maxSpeed 	18.914364551105
scalar Scenario2.node[13].veinsmobility 	totalDistance 	760.32197011235
scalar Scenario2.node[13].veinsmobility 	totalCO2Emission 	178.60946014272
scalar Scenario2.node[168].appl 	generatedWSMs 	1
scalar Scenario2.node[168].appl 	receivedWSMs 	8
scalar Scenario2.node[168].appl 	generatedBSMs 	380
scalar Scenario2.node[168].appl 	receivedBSMs 	46430
scalar Scenario2.node[168].appl 	generatedWSAs 	0
scalar Scenario2.node[168].appl 	receivedWSAs 	0
scalar Scenario2.node[168].appl 	delayWSM 	0.000272896292
scalar Scenario2.node[168].appl 	Dist_Propa 	41.208031579475
scalar Scenario2.node[168].nic.phy80211p 	busyTime 	0.13887389473691
scalar Scenario2.node[168].nic.phy80211p 	ncollisions 	1941
scalar Scenario2.node[168].nic.mac1609_4 	ReceivedUnicastPackets 	0
scalar Scenario2.node[168].nic.mac1609_4 	ReceivedBroadcasts 	46438
scalar Scenario2.node[168].nic.mac1609_4 	SentPackets 	381
scalar Scenario2.node[168].nic.mac1609_4 	SNIRLostPackets 	4121
scalar Scenario2.node[168].nic.mac1609_4 	RXTXLostPackets 	43
scalar Scenario2.node[168].nic.mac1609_4 	TotalLostPackets 	4164
scalar Scenario2.node[168].nic.mac1609_4 	DroppedPacketsInMac 	0
scalar Scenario2.node[168].nic.mac1609_4 	TooLittleTime 	0
scalar Scenario2.node[168].nic.mac1609_4 	TimesIntoBackoff 	382
scalar Scenario2.node[168].nic.mac1609_4 	SlotsBackoff 	580
scalar Scenario2.node[168].nic.mac1609_4 	NumInternalContention 	0
scalar Scenario2.node[168].nic.mac1609_4 	totalBusyTime 	5.073342930439
scalar Scenario2.node[168].veinsmobility 	startTime 	20
scalar Scenario2.node[168].veinsmobility 	totalTime 	37
scalar Scenario2.node[168].veinsmobility 	stopTime 	58
scalar Scenario2.node[168].veinsmobility 	minSpeed 	0
scalar Scenario2.node[168].veinsmobility 	maxSpeed 	18.968500454263
scalar Scenario2.node[168].veinsmobility 	totalDistance 	523.20473672205
scalar Scenario2.node[168].veinsmobility 	totalCO2Emission 	132.34195669029
scalar Scenario2.node[9].appl 	generatedWSMs 	1
scalar Scenario2.node[9].appl 	receivedWSMs 	8
scalar Scenario2.node[9].appl 	generatedBSMs 	580
scalar Scenario2.node[9].appl 	receivedBSMs 	66149
scalar Scenario2.node[9].appl 	generatedWSAs 	0
scalar Scenario2.node[9].appl 	receivedWSAs 	0
scalar Scenario2.node[9].appl 	delayWSM 	0.000272907161
scalar Scenario2.node[9].appl 	Dist_Propa 	152.19555821929
scalar Scenario2.node[9].nic.phy80211p 	busyTime 	0.12701889655188
scalar Scenario2.node[9].nic.phy80211p 	ncollisions 	1872
scalar Scenario2.node[9].nic.mac1609_4 	ReceivedUnicastPackets 	0
scalar Scenario2.node[9].nic.mac1609_4 	ReceivedBroadcasts 	66157
scalar Scenario2.node[9].nic.mac1609_4 	SentPackets 	581
scalar Scenario2.node[9].nic.mac1609_4 	SNIRLostPackets 	4502
scalar Scenario2.node[9].nic.mac1609_4 	RXTXLostPackets 	403
scalar Scenario2.node[9].nic.mac1609_4 	TotalLostPackets 	4905
scalar Scenario2.node[9].nic.mac1609_4 	DroppedPacketsInMac 	0
scalar Scenario2.node[9].nic.mac1609_4 	TooLittleTime 	0
scalar Scenario2.node[9].nic.mac1609_4 	TimesIntoBackoff 	582
scalar Scenario2.node[9].nic.mac1609_4 	SlotsBackoff 	910
scalar Scenario2.node[9].nic.mac1609_4 	NumInternalContention 	0
scalar Scenario2.node[9].nic.mac1609_4 	totalBusyTime 	7.13794219664
scalar Scenario2.node[9].veinsmobility 	startTime 	1
scalar Scenario2.node[9].veinsmobility 	totalTime 	57
scalar Scenario2.node[9].veinsmobility 	stopTime 	59
scalar Scenario2.node[9].veinsmobility 	minSpeed 	3.932047590691
scalar Scenario2.node[9].veinsmobility 	maxSpeed 	18.958448226
scalar Scenario2.node[9].veinsmobility 	totalDistance 	820.05985265805
scalar Scenario2.node[9].veinsmobility 	totalCO2Emission 	196.30053678776
scalar Scenario2.node[156].appl 	generatedWSMs 	1
scalar Scenario2.node[156].appl 	receivedWSMs 	7
scalar Scenario2.node[156].appl 	generatedBSMs 	420
scalar Scenario2.node[156].appl 	receivedBSMs 	52584
scalar Scenario2.node[156].appl 	generatedWSAs 	0
scalar Scenario2.node[156].appl 	receivedWSAs 	0
scalar Scenario2.node[156].appl 	delayWSM 	0.000272859086
scalar Scenario2.node[156].appl 	Dist_Propa 	34.256440669396
[...]
scalar Scenario2.node[251].nic.mac1609_4 	TotalLostPackets 	22
scalar Scenario2.node[251].nic.mac1609_4 	DroppedPacketsInMac 	0
scalar Scenario2.node[251].nic.mac1609_4 	TooLittleTime 	0
scalar Scenario2.node[251].nic.mac1609_4 	TimesIntoBackoff 	70
scalar Scenario2.node[251].nic.mac1609_4 	SlotsBackoff 	112
scalar Scenario2.node[251].nic.mac1609_4 	NumInternalContention 	0
scalar Scenario2.node[251].nic.mac1609_4 	totalBusyTime 	0.15191
scalar Scenario2.node[251].veinsmobility 	startTime 	53
scalar Scenario2.node[251].veinsmobility 	totalTime 	7
scalar Scenario2.node[251].veinsmobility 	stopTime 	60
scalar Scenario2.node[251].veinsmobility 	minSpeed 	3.3749732255289
scalar Scenario2.node[251].veinsmobility 	maxSpeed 	14.969494598986
scalar Scenario2.node[251].veinsmobility 	totalDistance 	58.638704761298
scalar Scenario2.node[251].veinsmobility 	totalCO2Emission 	38.710387034317
scalar Scenario2.node[254].appl 	generatedWSMs 	0
scalar Scenario2.node[254].appl 	receivedWSMs 	0
scalar Scenario2.node[254].appl 	generatedBSMs 	50
scalar Scenario2.node[254].appl 	receivedBSMs 	933
scalar Scenario2.node[254].appl 	generatedWSAs 	0
scalar Scenario2.node[254].appl 	receivedWSAs 	0
scalar Scenario2.node[254].appl 	delayWSM 	-1
scalar Scenario2.node[254].appl 	Dist_Propa 	-1
scalar Scenario2.node[254].nic.phy80211p 	busyTime 	0.019552
scalar Scenario2.node[254].nic.phy80211p 	ncollisions 	7
scalar Scenario2.node[254].nic.mac1609_4 	ReceivedUnicastPackets 	0
scalar Scenario2.node[254].nic.mac1609_4 	ReceivedBroadcasts 	933
scalar Scenario2.node[254].nic.mac1609_4 	SentPackets 	50
scalar Scenario2.node[254].nic.mac1609_4 	SNIRLostPackets 	7
scalar Scenario2.node[254].nic.mac1609_4 	RXTXLostPackets 	0
scalar Scenario2.node[254].nic.mac1609_4 	TotalLostPackets 	7
scalar Scenario2.node[254].nic.mac1609_4 	DroppedPacketsInMac 	0
scalar Scenario2.node[254].nic.mac1609_4 	TooLittleTime 	0
scalar Scenario2.node[254].nic.mac1609_4 	TimesIntoBackoff 	50
scalar Scenario2.node[254].nic.mac1609_4 	SlotsBackoff 	91
scalar Scenario2.node[254].nic.mac1609_4 	NumInternalContention 	0
scalar Scenario2.node[254].nic.mac1609_4 	totalBusyTime 	0.10301
scalar Scenario2.node[254].veinsmobility 	startTime 	55
scalar Scenario2.node[254].veinsmobility 	totalTime 	5
scalar Scenario2.node[254].veinsmobility 	stopTime 	60
scalar Scenario2.node[254].veinsmobility 	minSpeed 	4.1467374746261
scalar Scenario2.node[254].veinsmobility 	maxSpeed 	11.606694836134
scalar Scenario2.node[254].veinsmobility 	totalDistance 	34.638113438887
scalar Scenario2.node[254].veinsmobility 	totalCO2Emission 	22.250403430648
scalar Scenario2.node[255].appl 	generatedWSMs 	0
scalar Scenario2.node[255].appl 	receivedWSMs 	0
scalar Scenario2.node[255].appl 	generatedBSMs 	40
scalar Scenario2.node[255].appl 	receivedBSMs 	741
scalar Scenario2.node[255].appl 	generatedWSAs 	0
scalar Scenario2.node[255].appl 	receivedWSAs 	0
scalar Scenario2.node[255].appl 	delayWSM 	-1
scalar Scenario2.node[255].appl 	Dist_Propa 	-1
scalar Scenario2.node[255].nic.phy80211p 	busyTime 	0.0195
scalar Scenario2.node[255].nic.phy80211p 	ncollisions 	9
scalar Scenario2.node[255].nic.mac1609_4 	ReceivedUnicastPackets 	0
scalar Scenario2.node[255].nic.mac1609_4 	ReceivedBroadcasts 	741
scalar Scenario2.node[255].nic.mac1609_4 	SentPackets 	40
scalar Scenario2.node[255].nic.mac1609_4 	SNIRLostPackets 	9
scalar Scenario2.node[255].nic.mac1609_4 	RXTXLostPackets 	0
scalar Scenario2.node[255].nic.mac1609_4 	TotalLostPackets 	9
scalar Scenario2.node[255].nic.mac1609_4 	DroppedPacketsInMac 	0
scalar Scenario2.node[255].nic.mac1609_4 	TooLittleTime 	0
scalar Scenario2.node[255].nic.mac1609_4 	TimesIntoBackoff 	40
scalar Scenario2.node[255].nic.mac1609_4 	SlotsBackoff 	61
scalar Scenario2.node[255].nic.mac1609_4 	NumInternalContention 	0
scalar Scenario2.node[255].nic.mac1609_4 	totalBusyTime 	0.0822
scalar Scenario2.node[255].veinsmobility 	startTime 	56
scalar Scenario2.node[255].veinsmobility 	totalTime 	4
scalar Scenario2.node[255].veinsmobility 	stopTime 	60
scalar Scenario2.node[255].veinsmobility 	minSpeed 	2.4095380588329
scalar Scenario2.node[255].veinsmobility 	maxSpeed 	8.1382013312156
scalar Scenario2.node[255].veinsmobility 	totalDistance 	17.782100549166
scalar Scenario2.node[255].veinsmobility 	totalCO2Emission 	12.921392037435
scalar Scenario2.node[258].appl 	generatedWSMs 	0
scalar Scenario2.node[258].appl 	receivedWSMs 	0
scalar Scenario2.node[258].appl 	generatedBSMs 	20
scalar Scenario2.node[258].appl 	receivedBSMs 	342
scalar Scenario2.node[258].appl 	generatedWSAs 	0
scalar Scenario2.node[258].appl 	receivedWSAs 	0
scalar Scenario2.node[258].appl 	delayWSM 	-1
scalar Scenario2.node[258].appl 	Dist_Propa 	-1
scalar Scenario2.node[258].nic.phy80211p 	busyTime 	0.0182
scalar Scenario2.node[258].nic.phy80211p 	ncollisions 	8
scalar Scenario2.node[258].nic.mac1609_4 	ReceivedUnicastPackets 	0
scalar Scenario2.node[258].nic.mac1609_4 	ReceivedBroadcasts 	342
scalar Scenario2.node[258].nic.mac1609_4 	SentPackets 	20
scalar Scenario2.node[258].nic.mac1609_4 	SNIRLostPackets 	8
scalar Scenario2.node[258].nic.mac1609_4 	RXTXLostPackets 	0
scalar Scenario2.node[258].nic.mac1609_4 	TotalLostPackets 	8
scalar Scenario2.node[258].nic.mac1609_4 	DroppedPacketsInMac 	0
scalar Scenario2.node[258].nic.mac1609_4 	TooLittleTime 	0
scalar Scenario2.node[258].nic.mac1609_4 	TimesIntoBackoff 	20
scalar Scenario2.node[258].nic.mac1609_4 	SlotsBackoff 	25
scalar Scenario2.node[258].nic.mac1609_4 	NumInternalContention 	0
scalar Scenario2.node[258].nic.mac1609_4 	totalBusyTime 	0.0385
scalar Scenario2.node[258].veinsmobility 	startTime 	58
scalar Scenario2.node[258].veinsmobility 	totalTime 	2
scalar Scenario2.node[258].veinsmobility 	stopTime 	60
scalar Scenario2.node[258].veinsmobility 	minSpeed 	2.7294526099854
scalar Scenario2.node[258].veinsmobility 	maxSpeed 	4.5797816218155
scalar Scenario2.node[258].veinsmobility 	totalDistance 	5.6359190073888
scalar Scenario2.node[258].veinsmobility 	totalCO2Emission 	3.3820611870713
scalar Scenario2.node[130].appl 	generatedWSMs 	1
scalar Scenario2.node[130].appl 	receivedWSMs 	8
scalar Scenario2.node[130].appl 	generatedBSMs 	480
scalar Scenario2.node[130].appl 	receivedBSMs 	58425
scalar Scenario2.node[130].appl 	generatedWSAs 	0
scalar Scenario2.node[130].appl 	receivedWSAs 	0
scalar Scenario2.node[130].appl 	delayWSM 	0.000565119287
scalar Scenario2.node[130].appl 	Dist_Propa 	826.97932789935
scalar Scenario2.node[130].nic.phy80211p 	busyTime 	0.13619633333347
scalar Scenario2.node[130].nic.phy80211p 	ncollisions 	2110
scalar Scenario2.node[130].nic.mac1609_4 	ReceivedUnicastPackets 	0
scalar Scenario2.node[130].nic.mac1609_4 	ReceivedBroadcasts 	58433
scalar Scenario2.node[130].nic.mac1609_4 	SentPackets 	481
scalar Scenario2.node[130].nic.mac1609_4 	SNIRLostPackets 	4289
scalar Scenario2.node[130].nic.mac1609_4 	RXTXLostPackets 	35
scalar Scenario2.node[130].nic.mac1609_4 	TotalLostPackets 	4324
scalar Scenario2.node[130].nic.mac1609_4 	DroppedPacketsInMac 	0
scalar Scenario2.node[130].nic.mac1609_4 	TooLittleTime 	0
scalar Scenario2.node[130].nic.mac1609_4 	TimesIntoBackoff 	482
scalar Scenario2.node[130].nic.mac1609_4 	SlotsBackoff 	738
scalar Scenario2.node[130].nic.mac1609_4 	NumInternalContention 	0
scalar Scenario2.node[130].nic.mac1609_4 	totalBusyTime 	6.348641251148
scalar Scenario2.node[130].veinsmobility 	startTime 	12
scalar Scenario2.node[130].veinsmobility 	totalTime 	48
scalar Scenario2.node[130].veinsmobility 	stopTime 	60
scalar Scenario2.node[130].veinsmobility 	minSpeed 	3.257133028099
scalar Scenario2.node[130].veinsmobility 	maxSpeed 	18.999128500514
scalar Scenario2.node[130].veinsmobility 	totalDistance 	661.78815505913
scalar Scenario2.node[130].veinsmobility 	totalCO2Emission 	179.96048440599
scalar Scenario2.node[262].appl 	generatedWSMs 	0
scalar Scenario2.node[262].appl 	receivedWSMs 	0
scalar Scenario2.node[262].appl 	generatedBSMs 	0
scalar Scenario2.node[262].appl 	receivedBSMs 	0
scalar Scenario2.node[262].appl 	generatedWSAs 	0
scalar Scenario2.node[262].appl 	receivedWSAs 	0
scalar Scenario2.node[262].appl 	delayWSM 	-1
scalar Scenario2.node[262].appl 	Dist_Propa 	-1
scalar Scenario2.node[262].nic.phy80211p 	busyTime 	-nan
scalar Scenario2.node[262].nic.phy80211p 	ncollisions 	0
scalar Scenario2.node[262].nic.mac1609_4 	ReceivedUnicastPackets 	0
scalar Scenario2.node[262].nic.mac1609_4 	ReceivedBroadcasts 	0
scalar Scenario2.node[262].nic.mac1609_4 	SentPackets 	0
scalar Scenario2.node[262].nic.mac1609_4 	SNIRLostPackets 	0
scalar Scenario2.node[262].nic.mac1609_4 	RXTXLostPackets 	0
scalar Scenario2.node[262].nic.mac1609_4 	TotalLostPackets 	0
scalar Scenario2.node[262].nic.mac1609_4 	DroppedPacketsInMac 	0
scalar Scenario2.node[262].nic.mac1609_4 	TooLittleTime 	0
scalar Scenario2.node[262].nic.mac1609_4 	TimesIntoBackoff 	0
scalar Scenario2.node[262].nic.mac1609_4 	SlotsBackoff 	0
scalar Scenario2.node[262].nic.mac1609_4 	NumInternalContention 	0
scalar Scenario2.node[262].nic.mac1609_4 	totalBusyTime 	0
scalar Scenario2.node[262].veinsmobility 	startTime 	60
scalar Scenario2.node[262].veinsmobility 	totalTime 	0
scalar Scenario2.node[262].veinsmobility 	stopTime 	60
scalar Scenario2.node[262].veinsmobility 	totalDistance 	0
scalar Scenario2.node[262].veinsmobility 	totalCO2Emission 	0
scalar Scenario2.node[136].appl 	generatedWSMs 	1
scalar Scenario2.node[136].appl 	receivedWSMs 	9
scalar Scenario2.node[136].appl 	generatedBSMs 	460
scalar Scenario2.node[136].appl 	receivedBSMs 	55770
scalar Scenario2.node[136].appl 	generatedWSAs 	0
scalar Scenario2.node[136].appl 	receivedWSAs 	0
scalar Scenario2.node[136].appl 	delayWSM 	0.000565221415
scalar Scenario2.node[136].appl 	Dist_Propa 	862.20945226209
scalar Scenario2.node[136].nic.phy80211p 	busyTime 	0.1353686956523
scalar Scenario2.node[136].nic.phy80211p 	ncollisions 	1984
scalar Scenario2.node[136].nic.mac1609_4 	ReceivedUnicastPackets 	0
scalar Scenario2.node[136].nic.mac1609_4 	ReceivedBroadcasts 	55779
scalar Scenario2.node[136].nic.mac1609_4 	SentPackets 	461
scalar Scenario2.node[136].nic.mac1609_4 	SNIRLostPackets 	3975
scalar Scenario2.node[136].nic.mac1609_4 	RXTXLostPackets 	138
scalar Scenario2.node[136].nic.mac1609_4 	TotalLostPackets 	4113
scalar Scenario2.node[136].nic.mac1609_4 	DroppedPacketsInMac 	0
scalar Scenario2.node[136].nic.mac1609_4 	TooLittleTime 	0
scalar Scenario2.node[136].nic.mac1609_4 	TimesIntoBackoff 	595
scalar Scenario2.node[136].nic.mac1609_4 	SlotsBackoff 	904
scalar Scenario2.node[136].nic.mac1609_4 	NumInternalContention 	0
scalar Scenario2.node[136].nic.mac1609_4 	totalBusyTime 	6.057421166531
scalar Scenario2.node[136].veinsmobility 	startTime 	14
scalar Scenario2.node[136].veinsmobility 	totalTime 	46
scalar Scenario2.node[136].veinsmobility 	stopTime 	60
scalar Scenario2.node[136].veinsmobility 	minSpeed 	3.4777492481221
scalar Scenario2.node[136].veinsmobility 	maxSpeed 	18.986348388898
scalar Scenario2.node[136].veinsmobility 	totalDistance 	641.93276437025
scalar Scenario2.node[136].veinsmobility 	totalCO2Emission 	170.05792350486
scalar Scenario2.node[154].appl 	generatedWSMs 	1
scalar Scenario2.node[154].appl 	receivedWSMs 	8
scalar Scenario2.node[154].appl 	generatedBSMs 	440
scalar Scenario2.node[154].appl 	receivedBSMs 	53311
scalar Scenario2.node[154].appl 	generatedWSAs 	0
scalar Scenario2.node[154].appl 	receivedWSAs 	0
scalar Scenario2.node[154].appl 	delayWSM 	0.000565320468
scalar Scenario2.node[154].appl 	Dist_Propa 	884.01916652839
scalar Scenario2.node[154].nic.phy80211p 	busyTime 	0.13510981818193
scalar Scenario2.node[154].nic.phy80211p 	ncollisions 	1795
scalar Scenario2.node[154].nic.mac1609_4 	ReceivedUnicastPackets 	0
scalar Scenario2.node[154].nic.mac1609_4 	ReceivedBroadcasts 	53319
scalar Scenario2.node[154].nic.mac1609_4 	SentPackets 	441
scalar Scenario2.node[154].nic.mac1609_4 	SNIRLostPackets 	3737
scalar Scenario2.node[154].nic.mac1609_4 	RXTXLostPackets 	29
scalar Scenario2.node[154].nic.mac1609_4 	TotalLostPackets 	3766
scalar Scenario2.node[154].nic.mac1609_4 	DroppedPacketsInMac 	0
scalar Scenario2.node[154].nic.mac1609_4 	TooLittleTime 	0
scalar Scenario2.node[154].nic.mac1609_4 	TimesIntoBackoff 	442
scalar Scenario2.node[154].nic.mac1609_4 	SlotsBackoff 	652
scalar Scenario2.node[154].nic.mac1609_4 	NumInternalContention 	0
scalar Scenario2.node[154].nic.mac1609_4 	totalBusyTime 	5.779825158356
scalar Scenario2.node[154].veinsmobility 	startTime 	16
scalar Scenario2.node[154].veinsmobility 	totalTime 	44
scalar Scenario2.node[154].veinsmobility 	stopTime 	60
scalar Scenario2.node[154].veinsmobility 	minSpeed 	4.2176943966643
scalar Scenario2.node[154].veinsmobility 	maxSpeed 	18.990893175832
scalar Scenario2.node[154].veinsmobility 	totalDistance 	622.58382803624
scalar Scenario2.node[154].veinsmobility 	totalCO2Emission 	160.43838939463
scalar Scenario2.node[159].appl 	generatedWSMs 	1
scalar Scenario2.node[159].appl 	receivedWSMs 	6
scalar Scenario2.node[159].appl 	generatedBSMs 	430
scalar Scenario2.node[159].appl 	receivedBSMs 	50837
scalar Scenario2.node[159].appl 	generatedWSAs 	0
scalar Scenario2.node[159].appl 	receivedWSAs 	0
scalar Scenario2.node[159].appl 	delayWSM 	0.000565419998
scalar Scenario2.node[159].appl 	Dist_Propa 	907.08781253847
scalar Scenario2.node[159].nic.phy80211p 	busyTime 	0.13178325581404
scalar Scenario2.node[159].nic.phy80211p 	ncollisions 	1634
scalar Scenario2.node[159].nic.mac1609_4 	ReceivedUnicastPackets 	0
scalar Scenario2.node[159].nic.mac1609_4 	ReceivedBroadcasts 	50843
scalar Scenario2.node[159].nic.mac1609_4 	SentPackets 	431
scalar Scenario2.node[159].nic.mac1609_4 	SNIRLostPackets 	3552
scalar Scenario2.node[159].nic.mac1609_4 	RXTXLostPackets 	24
scalar Scenario2.node[159].nic.mac1609_4 	TotalLostPackets 	3576
scalar Scenario2.node[159].nic.mac1609_4 	DroppedPacketsInMac 	0
scalar Scenario2.node[159].nic.mac1609_4 	TooLittleTime 	0
scalar Scenario2.node[159].nic.mac1609_4 	TimesIntoBackoff 	432
scalar Scenario2.node[159].nic.mac1609_4 	SlotsBackoff 	629
scalar Scenario2.node[159].nic.mac1609_4 	NumInternalContention 	0
scalar Scenario2.node[159].nic.mac1609_4 	totalBusyTime 	5.504399132092
scalar Scenario2.node[159].veinsmobility 	startTime 	17
scalar Scenario2.node[159].veinsmobility 	totalTime 	43
scalar Scenario2.node[159].veinsmobility 	stopTime 	60
scalar Scenario2.node[159].veinsmobility 	minSpeed 	2.7087925310453
scalar Scenario2.node[159].veinsmobility 	maxSpeed 	18.998727781165
scalar Scenario2.node[159].veinsmobility 	totalDistance 	610.69359653895
scalar Scenario2.node[159].veinsmobility 	totalCO2Emission 	176.20026950234
scalar Scenario2.node[167].appl 	generatedWSMs 	1
scalar Scenario2.node[167].appl 	receivedWSMs 	3
scalar Scenario2.node[167].appl 	generatedBSMs 	410
scalar Scenario2.node[167].appl 	receivedBSMs 	48297
scalar Scenario2.node[167].appl 	generatedWSAs 	0
scalar Scenario2.node[167].appl 	receivedWSAs 	0
scalar Scenario2.node[167].appl 	delayWSM 	0.010803443176
scalar Scenario2.node[167].appl 	Dist_Propa 	945.75897468841
scalar Scenario2.node[167].nic.phy80211p 	busyTime 	0.1311490731708
scalar Scenario2.node[167].nic.phy80211p 	ncollisions 	1503
scalar Scenario2.node[167].nic.mac1609_4 	ReceivedUnicastPackets 	0
scalar Scenario2.node[167].nic.mac1609_4 	ReceivedBroadcasts 	48300
scalar Scenario2.node[167].nic.mac1609_4 	SentPackets 	411
scalar Scenario2.node[167].nic.mac1609_4 	SNIRLostPackets 	3307
scalar Scenario2.node[167].nic.mac1609_4 	RXTXLostPackets 	9
scalar Scenario2.node[167].nic.mac1609_4 	TotalLostPackets 	3316
scalar Scenario2.node[167].nic.mac1609_4 	DroppedPacketsInMac 	0
scalar Scenario2.node[167].nic.mac1609_4 	TooLittleTime 	0
scalar Scenario2.node[167].nic.mac1609_4 	TimesIntoBackoff 	411
scalar Scenario2.node[167].nic.mac1609_4 	SlotsBackoff 	603
scalar Scenario2.node[167].nic.mac1609_4 	NumInternalContention 	0
scalar Scenario2.node[167].nic.mac1609_4 	totalBusyTime 	5.223819156273
scalar Scenario2.node[167].veinsmobility 	startTime 	19
scalar Scenario2.node[167].veinsmobility 	totalTime 	41
scalar Scenario2.node[167].veinsmobility 	stopTime 	60
scalar Scenario2.node[167].veinsmobility 	minSpeed 	3.3557482195866
scalar Scenario2.node[167].veinsmobility 	maxSpeed 	18.999923923542
scalar Scenario2.node[167].veinsmobility 	totalDistance 	604.47872223042
scalar Scenario2.node[167].veinsmobility 	totalCO2Emission 	148.9181485535
scalar Scenario2.node[175].appl 	generatedWSMs 	1
scalar Scenario2.node[175].appl 	receivedWSMs 	1
scalar Scenario2.node[175].appl 	generatedBSMs 	390
scalar Scenario2.node[175].appl 	receivedBSMs 	44607
scalar Scenario2.node[175].appl 	generatedWSAs 	0
scalar Scenario2.node[175].appl 	receivedWSAs 	0
scalar Scenario2.node[175].appl 	delayWSM 	0.010803580751
scalar Scenario2.node[175].appl 	Dist_Propa 	789.57413169297
scalar Scenario2.node[175].nic.phy80211p 	busyTime 	0.12729600000004
scalar Scenario2.node[175].nic.phy80211p 	ncollisions 	1399
scalar Scenario2.node[175].nic.mac1609_4 	ReceivedUnicastPackets 	0
scalar Scenario2.node[175].nic.mac1609_4 	ReceivedBroadcasts 	44608
scalar Scenario2.node[175].nic.mac1609_4 	SentPackets 	391
scalar Scenario2.node[175].nic.mac1609_4 	SNIRLostPackets 	3064
scalar Scenario2.node[175].nic.mac1609_4 	RXTXLostPackets 	0
scalar Scenario2.node[175].nic.mac1609_4 	TotalLostPackets 	3064
scalar Scenario2.node[175].nic.mac1609_4 	DroppedPacketsInMac 	0
scalar Scenario2.node[175].nic.mac1609_4 	TooLittleTime 	0
scalar Scenario2.node[175].nic.mac1609_4 	TimesIntoBackoff 	391
scalar Scenario2.node[175].nic.mac1609_4 	SlotsBackoff 	641
scalar Scenario2.node[175].nic.mac1609_4 	NumInternalContention 	0
scalar Scenario2.node[175].nic.mac1609_4 	totalBusyTime 	4.826807124288
scalar Scenario2.node[175].veinsmobility 	startTime 	21
scalar Scenario2.node[175].veinsmobility 	totalTime 	39
scalar Scenario2.node[175].veinsmobility 	stopTime 	60
scalar Scenario2.node[175].veinsmobility 	minSpeed 	3.5815561515633
scalar Scenario2.node[175].veinsmobility 	maxSpeed 	18.991335381207
scalar Scenario2.node[175].veinsmobility 	totalDistance 	585.24651030782
scalar Scenario2.node[175].veinsmobility 	totalCO2Emission 	140.10945338174
scalar Scenario2.node[177].appl 	generatedWSMs 	1
scalar Scenario2.node[177].appl 	receivedWSMs 	2
scalar Scenario2.node[177].appl 	generatedBSMs 	380
scalar Scenario2.node[177].appl 	receivedBSMs 	42313
scalar Scenario2.node[177].appl 	generatedWSAs 	0
scalar Scenario2.node[177].appl 	receivedWSAs 	0
scalar Scenario2.node[177].appl 	delayWSM 	0.01080366859
scalar Scenario2.node[177].appl 	Dist_Propa 	788.83170114866
scalar Scenario2.node[177].nic.phy80211p 	busyTime 	0.12384273684213
scalar Scenario2.node[177].nic.phy80211p 	ncollisions 	1301
scalar Scenario2.node[177].nic.mac1609_4 	ReceivedUnicastPackets 	0
scalar Scenario2.node[177].nic.mac1609_4 	ReceivedBroadcasts 	42315
scalar Scenario2.node[177].nic.mac1609_4 	SentPackets 	381
scalar Scenario2.node[177].nic.mac1609_4 	SNIRLostPackets 	2902
scalar Scenario2.node[177].nic.mac1609_4 	RXTXLostPackets 	8
scalar Scenario2.node[177].nic.mac1609_4 	TotalLostPackets 	2910
scalar Scenario2.node[177].nic.mac1609_4 	DroppedPacketsInMac 	0
scalar Scenario2.node[177].nic.mac1609_4 	TooLittleTime 	0
scalar Scenario2.node[177].nic.mac1609_4 	TimesIntoBackoff 	381
scalar Scenario2.node[177].nic.mac1609_4 	SlotsBackoff 	584
scalar Scenario2.node[177].nic.mac1609_4 	NumInternalContention 	0
scalar Scenario2.node[177].nic.mac1609_4 	totalBusyTime 	4.577093197858
scalar Scenario2.node[177].veinsmobility 	startTime 	22
scalar Scenario2.node[177].veinsmobility 	totalTime 	38
scalar Scenario2.node[177].veinsmobility 	stopTime 	60
scalar Scenario2.node[177].veinsmobility 	minSpeed 	2.2529883940338
scalar Scenario2.node[177].veinsmobility 	maxSpeed 	18.999875641265
scalar Scenario2.node[177].veinsmobility 	totalDistance 	590.43950862395
scalar Scenario2.node[177].veinsmobility 	totalCO2Emission 	156.81212229586
