file 1586570 1518085036                                         
version 2
run WithoutChannelSwitching-TrAD-0-20180208-05:54:05-12267
attr configname WithoutChannelSwitching-TrAD
attr datetime 20180208-05:54:05
attr experiment WithoutChannelSwitching-TrAD
attr inifile omnetpp.ini
attr iterationvars ""
attr iterationvarsf ""
attr measurement ""
attr network Scenario2
attr processid 12267
attr repetition 0
attr replication #0
attr resultdir results
attr runnumber 0
attr seedset 0
param **.coreDebug false
param **.debug false
param *.**.nic.mac1609_4.bitrate 6Mbps
param *.**.nic.mac1609_4.txPower 20mW
param *.**.nic.mac1609_4.useServiceChannel false
param *.**.nic.phy80211p.analogueModels "xmldoc(\"config.xml\")"
param *.**.nic.phy80211p.antenna "xmldoc(\"antenna.xml\", \"/root/Antenna[@id='monopole']\")"
param *.**.nic.phy80211p.collectCollisionStatistics true
param *.**.nic.phy80211p.decider "xmldoc(\"config.xml\")"
param *.**.nic.phy80211p.sensitivity -89dBm
param *.**.nic.phy80211p.thermalNoise -110dBm
param *.**.nic.phy80211p.usePropagationDelay true
param *.**.nic.phy80211p.useThermalNoise true
param *.annotations.draw true
param *.connectionManager.drawMaxIntfDist false
param *.connectionManager.maxInterfDist 2600m
param *.connectionManager.sendDirect true
param *.manager.autoShutdown true
param *.manager.host "\"localhost\""
param *.manager.launchConfig "xmldoc(\"mycross.launchd.xml\")"
param *.manager.port 9999
param *.manager.updateInterval 1s
param *.node[*].appl.TrAD true
param *.node[*].appl.TrAD_Neig 25
param *.node[*].appl.TrAD_R 366
param *.node[*].appl.TrAD_alpha 10
param *.node[*].appl.TrAD_ti 0.005
param *.node[*].appl.beaconInterval 1s
param *.node[*].appl.dataOnSch false
param *.node[*].appl.headerLength "80 bit"
param *.node[*].appl.sendBeacons true
param *.node[*].applType "\"myWaveAppLayer\""
param *.node[*].veinsmobility.x 0
param *.node[*].veinsmobility.y 0
param *.node[*].veinsmobility.z 1.895
param *.node[*].veinsmobilityType.debug true
param *.node[20].appl.Accident_start 30
param *.node[40].veinsmobility.accidentCount 1
param *.node[40].veinsmobility.accidentDuration 40s
param *.node[40].veinsmobility.accidentStart 30s
param *.obstacles.debug false
param *.playgroundSizeX 2500m
param *.playgroundSizeY 2500m
param *.playgroundSizeZ 50m
param *.rsu[*].appl.beaconInterval 0.1s
param *.rsu[*].appl.beaconUserPriority 7
param *.rsu[*].appl.dataOnSch false
param *.rsu[*].appl.dataUserPriority 5
param *.rsu[*].appl.headerLength "80 bit"
param *.rsu[*].appl.sendBeacons false
param *.rsu[*].applType "\"TraCIDemoRSU11p\""
param *.rsu[0].mobility.x 500
param *.rsu[0].mobility.y 500
param *.rsu[0].mobility.z 3

vector 2  Scenario2.node[0].veinsmobility  posx  ETV
vector 3  Scenario2.node[0].veinsmobility  posy  ETV
vector 9  Scenario2.node[1].veinsmobility  posx  ETV
vector 10  Scenario2.node[1].veinsmobility  posy  ETV
vector 16  Scenario2.node[2].veinsmobility  posx  ETV
vector 17  Scenario2.node[2].veinsmobility  posy  ETV
vector 23  Scenario2.node[3].veinsmobility  posx  ETV
vector 24  Scenario2.node[3].veinsmobility  posy  ETV
vector 30  Scenario2.node[4].veinsmobility  posx  ETV
vector 31  Scenario2.node[4].veinsmobility  posy  ETV
vector 37  Scenario2.node[5].veinsmobility  posx  ETV
vector 38  Scenario2.node[5].veinsmobility  posy  ETV
vector 44  Scenario2.node[6].veinsmobility  posx  ETV
vector 45  Scenario2.node[6].veinsmobility  posy  ETV
vector 51  Scenario2.node[7].veinsmobility  posx  ETV
vector 52  Scenario2.node[7].veinsmobility  posy  ETV
vector 58  Scenario2.node[8].veinsmobility  posx  ETV
vector 59  Scenario2.node[8].veinsmobility  posy  ETV
vector 65  Scenario2.node[9].veinsmobility  posx  ETV
vector 66  Scenario2.node[9].veinsmobility  posy  ETV
vector 72  Scenario2.node[10].veinsmobility  posx  ETV
vector 73  Scenario2.node[10].veinsmobility  posy  ETV
vector 79  Scenario2.node[11].veinsmobility  posx  ETV
vector 80  Scenario2.node[11].veinsmobility  posy  ETV
vector 86  Scenario2.node[12].veinsmobility  posx  ETV
vector 87  Scenario2.node[12].veinsmobility  posy  ETV
vector 93  Scenario2.node[13].veinsmobility  posx  ETV
vector 94  Scenario2.node[13].veinsmobility  posy  ETV
vector 100  Scenario2.node[14].veinsmobility  posx  ETV
vector 101  Scenario2.node[14].veinsmobility  posy  ETV
vector 107  Scenario2.node[15].veinsmobility  posx  ETV
vector 108  Scenario2.node[15].veinsmobility  posy  ETV
vector 114  Scenario2.node[16].veinsmobility  posx  ETV
vector 115  Scenario2.node[16].veinsmobility  posy  ETV
vector 121  Scenario2.node[17].veinsmobility  posx  ETV
vector 122  Scenario2.node[17].veinsmobility  posy  ETV
vector 128  Scenario2.node[18].veinsmobility  posx  ETV
vector 129  Scenario2.node[18].veinsmobility  posy  ETV
vector 135  Scenario2.node[19].veinsmobility  posx  ETV
vector 136  Scenario2.node[19].veinsmobility  posy  ETV
vector 142  Scenario2.node[20].veinsmobility  posx  ETV
vector 143  Scenario2.node[20].veinsmobility  posy  ETV
vector 149  Scenario2.node[21].veinsmobility  posx  ETV
vector 150  Scenario2.node[21].veinsmobility  posy  ETV
vector 156  Scenario2.node[22].veinsmobility  posx  ETV
vector 157  Scenario2.node[22].veinsmobility  posy  ETV
vector 163  Scenario2.node[23].veinsmobility  posx  ETV
vector 164  Scenario2.node[23].veinsmobility  posy  ETV
vector 170  Scenario2.node[24].veinsmobility  posx  ETV
vector 171  Scenario2.node[24].veinsmobility  posy  ETV
vector 177  Scenario2.node[25].veinsmobility  posx  ETV
vector 178  Scenario2.node[25].veinsmobility  posy  ETV
vector 184  Scenario2.node[26].veinsmobility  posx  ETV
vector 185  Scenario2.node[26].veinsmobility  posy  ETV
vector 191  Scenario2.node[27].veinsmobility  posx  ETV
vector 192  Scenario2.node[27].veinsmobility  posy  ETV
vector 198  Scenario2.node[28].veinsmobility  posx  ETV
vector 199  Scenario2.node[28].veinsmobility  posy  ETV
vector 205  Scenario2.node[29].veinsmobility  posx  ETV
vector 206  Scenario2.node[29].veinsmobility  posy  ETV
vector 212  Scenario2.node[30].veinsmobility  posx  ETV
vector 213  Scenario2.node[30].veinsmobility  posy  ETV
vector 219  Scenario2.node[31].veinsmobility  posx  ETV
vector 220  Scenario2.node[31].veinsmobility  posy  ETV
vector 226  Scenario2.node[32].veinsmobility  posx  ETV
vector 227  Scenario2.node[32].veinsmobility  posy  ETV
vector 233  Scenario2.node[33].veinsmobility  posx  ETV
vector 234  Scenario2.node[33].veinsmobility  posy  ETV
vector 240  Scenario2.node[34].veinsmobility  posx  ETV
vector 241  Scenario2.node[34].veinsmobility  posy  ETV
vector 247  Scenario2.node[35].veinsmobility  posx  ETV
vector 248  Scenario2.node[35].veinsmobility  posy  ETV
vector 254  Scenario2.node[36].veinsmobility  posx  ETV
vector 255  Scenario2.node[36].veinsmobility  posy  ETV
vector 261  Scenario2.node[37].veinsmobility  posx  ETV
vector 262  Scenario2.node[37].veinsmobility  posy  ETV
vector 268  Scenario2.node[38].veinsmobility  posx  ETV
vector 269  Scenario2.node[38].veinsmobility  posy  ETV
vector 275  Scenario2.node[39].veinsmobility  posx  ETV
vector 276  Scenario2.node[39].veinsmobility  posy  ETV
vector 282  Scenario2.node[40].veinsmobility  posx  ETV
vector 283  Scenario2.node[40].veinsmobility  posy  ETV
vector 289  Scenario2.node[41].veinsmobility  posx  ETV
vector 290  Scenario2.node[41].veinsmobility  posy  ETV
vector 296  Scenario2.node[42].veinsmobility  posx  ETV
vector 297  Scenario2.node[42].veinsmobility  posy  ETV
vector 303  Scenario2.node[43].veinsmobility  posx  ETV
vector 304  Scenario2.node[43].veinsmobility  posy  ETV
vector 310  Scenario2.node[44].veinsmobility  posx  ETV
vector 311  Scenario2.node[44].veinsmobility  posy  ETV
vector 317  Scenario2.node[45].veinsmobility  posx  ETV
vector 318  Scenario2.node[45].veinsmobility  posy  ETV
vector 324  Scenario2.node[46].veinsmobility  posx  ETV
vector 325  Scenario2.node[46].veinsmobility  posy  ETV
vector 331  Scenario2.node[47].veinsmobility  posx  ETV
vector 332  Scenario2.node[47].veinsmobility  posy  ETV
vector 338  Scenario2.node[48].veinsmobility  posx  ETV
vector 339  Scenario2.node[48].veinsmobility  posy  ETV
vector 345  Scenario2.node[49].veinsmobility  posx  ETV
vector 346  Scenario2.node[49].veinsmobility  posy  ETV
vector 352  Scenario2.node[50].veinsmobility  posx  ETV
vector 353  Scenario2.node[50].veinsmobility  posy  ETV
vector 359  Scenario2.node[51].veinsmobility  posx  ETV
vector 360  Scenario2.node[51].veinsmobility  posy  ETV
vector 366  Scenario2.node[52].veinsmobility  posx  ETV
vector 367  Scenario2.node[52].veinsmobility  posy  ETV
vector 373  Scenario2.node[53].veinsmobility  posx  ETV
vector 374  Scenario2.node[53].veinsmobility  posy  ETV
vector 380  Scenario2.node[54].veinsmobility  posx  ETV
vector 381  Scenario2.node[54].veinsmobility  posy  ETV
vector 387  Scenario2.node[55].veinsmobility  posx  ETV
vector 388  Scenario2.node[55].veinsmobility  posy  ETV
vector 394  Scenario2.node[56].veinsmobility  posx  ETV
vector 395  Scenario2.node[56].veinsmobility  posy  ETV
vector 401  Scenario2.node[57].veinsmobility  posx  ETV
vector 402  Scenario2.node[57].veinsmobility  posy  ETV
vector 408  Scenario2.node[58].veinsmobility  posx  ETV
vector 409  Scenario2.node[58].veinsmobility  posy  ETV
vector 415  Scenario2.node[59].veinsmobility  posx  ETV
vector 416  Scenario2.node[59].veinsmobility  posy  ETV
vector 422  Scenario2.node[60].veinsmobility  posx  ETV
vector 423  Scenario2.node[60].veinsmobility  posy  ETV
vector 429  Scenario2.node[61].veinsmobility  posx  ETV
vector 430  Scenario2.node[61].veinsmobility  posy  ETV
vector 436  Scenario2.node[62].veinsmobility  posx  ETV
vector 437  Scenario2.node[62].veinsmobility  posy  ETV
vector 443  Scenario2.node[63].veinsmobility  posx  ETV
vector 444  Scenario2.node[63].veinsmobility  posy  ETV
vector 450  Scenario2.node[64].veinsmobility  posx  ETV
vector 451  Scenario2.node[64].veinsmobility  posy  ETV
vector 457  Scenario2.node[65].veinsmobility  posx  ETV
vector 458  Scenario2.node[65].veinsmobility  posy  ETV
vector 464  Scenario2.node[66].veinsmobility  posx  ETV
vector 465  Scenario2.node[66].veinsmobility  posy  ETV
vector 471  Scenario2.node[67].veinsmobility  posx  ETV
vector 472  Scenario2.node[67].veinsmobility  posy  ETV
vector 478  Scenario2.node[68].veinsmobility  posx  ETV
vector 479  Scenario2.node[68].veinsmobility  posy  ETV
vector 485  Scenario2.node[69].veinsmobility  posx  ETV
vector 486  Scenario2.node[69].veinsmobility  posy  ETV
vector 492  Scenario2.node[70].veinsmobility  posx  ETV
vector 493  Scenario2.node[70].veinsmobility  posy  ETV
vector 499  Scenario2.node[71].veinsmobility  posx  ETV
vector 500  Scenario2.node[71].veinsmobility  posy  ETV
vector 4  Scenario2.node[0].veinsmobility  speed  ETV
vector 11  Scenario2.node[1].veinsmobility  speed  ETV
vector 18  Scenario2.node[2].veinsmobility  speed  ETV
vector 25  Scenario2.node[3].veinsmobility  speed  ETV
vector 32  Scenario2.node[4].veinsmobility  speed  ETV
vector 39  Scenario2.node[5].veinsmobility  speed  ETV
vector 46  Scenario2.node[6].veinsmobility  speed  ETV
vector 53  Scenario2.node[7].veinsmobility  speed  ETV
vector 60  Scenario2.node[8].veinsmobility  speed  ETV
vector 67  Scenario2.node[9].veinsmobility  speed  ETV
vector 74  Scenario2.node[10].veinsmobility  speed  ETV
vector 81  Scenario2.node[11].veinsmobility  speed  ETV
vector 88  Scenario2.node[12].veinsmobility  speed  ETV
vector 95  Scenario2.node[13].veinsmobility  speed  ETV
vector 102  Scenario2.node[14].veinsmobility  speed  ETV
vector 109  Scenario2.node[15].veinsmobility  speed  ETV
vector 116  Scenario2.node[16].veinsmobility  speed  ETV
vector 123  Scenario2.node[17].veinsmobility  speed  ETV
vector 130  Scenario2.node[18].veinsmobility  speed  ETV
vector 137  Scenario2.node[19].veinsmobility  speed  ETV
vector 144  Scenario2.node[20].veinsmobility  speed  ETV
vector 151  Scenario2.node[21].veinsmobility  speed  ETV
vector 158  Scenario2.node[22].veinsmobility  speed  ETV
vector 165  Scenario2.node[23].veinsmobility  speed  ETV
vector 172  Scenario2.node[24].veinsmobility  speed  ETV
vector 179  Scenario2.node[25].veinsmobility  speed  ETV
vector 186  Scenario2.node[26].veinsmobility  speed  ETV
vector 193  Scenario2.node[27].veinsmobility  speed  ETV
vector 200  Scenario2.node[28].veinsmobility  speed  ETV
vector 207  Scenario2.node[29].veinsmobility  speed  ETV
vector 214  Scenario2.node[30].veinsmobility  speed  ETV
vector 221  Scenario2.node[31].veinsmobility  speed  ETV
vector 228  Scenario2.node[32].veinsmobility  speed  ETV
vector 235  Scenario2.node[33].veinsmobility  speed  ETV
vector 242  Scenario2.node[34].veinsmobility  speed  ETV
vector 249  Scenario2.node[35].veinsmobility  speed  ETV
vector 256  Scenario2.node[36].veinsmobility  speed  ETV
vector 263  Scenario2.node[37].veinsmobility  speed  ETV
vector 270  Scenario2.node[38].veinsmobility  speed  ETV
vector 277  Scenario2.node[39].veinsmobility  speed  ETV
vector 284  Scenario2.node[40].veinsmobility  speed  ETV
vector 291  Scenario2.node[41].veinsmobility  speed  ETV
vector 298  Scenario2.node[42].veinsmobility  speed  ETV
vector 305  Scenario2.node[43].veinsmobility  speed  ETV
vector 312  Scenario2.node[44].veinsmobility  speed  ETV
vector 319  Scenario2.node[45].veinsmobility  speed  ETV
vector 326  Scenario2.node[46].veinsmobility  speed  ETV
vector 506  Scenario2.node[72].veinsmobility  posx  ETV
vector 507  Scenario2.node[72].veinsmobility  posy  ETV
vector 513  Scenario2.node[73].veinsmobility  posx  ETV
vector 514  Scenario2.node[73].veinsmobility  posy  ETV
vector 520  Scenario2.node[74].veinsmobility  posx  ETV
vector 521  Scenario2.node[74].veinsmobility  posy  ETV
vector 527  Scenario2.node[75].veinsmobility  posx  ETV
vector 528  Scenario2.node[75].veinsmobility  posy  ETV
vector 534  Scenario2.node[76].veinsmobility  posx  ETV
vector 535  Scenario2.node[76].veinsmobility  posy  ETV
vector 541  Scenario2.node[77].veinsmobility  posx  ETV
vector 542  Scenario2.node[77].veinsmobility  posy  ETV
vector 548  Scenario2.node[78].veinsmobility  posx  ETV
vector 549  Scenario2.node[78].veinsmobility  posy  ETV
vector 555  Scenario2.node[79].veinsmobility  posx  ETV
vector 556  Scenario2.node[79].veinsmobility  posy  ETV
vector 5  Scenario2.node[0].veinsmobility  acceleration  ETV
vector 6  Scenario2.node[0].veinsmobility  co2emission  ETV
vector 12  Scenario2.node[1].veinsmobility  acceleration  ETV
vector 13  Scenario2.node[1].veinsmobility  co2emission  ETV
vector 19  Scenario2.node[2].veinsmobility  acceleration  ETV
vector 20  Scenario2.node[2].veinsmobility  co2emission  ETV
vector 26  Scenario2.node[3].veinsmobility  acceleration  ETV
vector 27  Scenario2.node[3].veinsmobility  co2emission  ETV
vector 33  Scenario2.node[4].veinsmobility  acceleration  ETV
vector 34  Scenario2.node[4].veinsmobility  co2emission  ETV
vector 40  Scenario2.node[5].veinsmobility  acceleration  ETV
vector 41  Scenario2.node[5].veinsmobility  co2emission  ETV
vector 47  Scenario2.node[6].veinsmobility  acceleration  ETV
vector 48  Scenario2.node[6].veinsmobility  co2emission  ETV
vector 54  Scenario2.node[7].veinsmobility  acceleration  ETV
vector 55  Scenario2.node[7].veinsmobility  co2emission  ETV
vector 61  Scenario2.node[8].veinsmobility  acceleration  ETV
vector 62  Scenario2.node[8].veinsmobility  co2emission  ETV
vector 68  Scenario2.node[9].veinsmobility  acceleration  ETV
vector 69  Scenario2.node[9].veinsmobility  co2emission  ETV
vector 75  Scenario2.node[10].veinsmobility  acceleration  ETV
vector 76  Scenario2.node[10].veinsmobility  co2emission  ETV
vector 82  Scenario2.node[11].veinsmobility  acceleration  ETV
vector 83  Scenario2.node[11].veinsmobility  co2emission  ETV
vector 89  Scenario2.node[12].veinsmobility  acceleration  ETV
vector 90  Scenario2.node[12].veinsmobility  co2emission  ETV
vector 96  Scenario2.node[13].veinsmobility  acceleration  ETV
vector 97  Scenario2.node[13].veinsmobility  co2emission  ETV
vector 103  Scenario2.node[14].veinsmobility  acceleration  ETV
vector 104  Scenario2.node[14].veinsmobility  co2emission  ETV
vector 110  Scenario2.node[15].veinsmobility  acceleration  ETV
vector 111  Scenario2.node[15].veinsmobility  co2emission  ETV
vector 117  Scenario2.node[16].veinsmobility  acceleration  ETV
vector 118  Scenario2.node[16].veinsmobility  co2emission  ETV
vector 124  Scenario2.node[17].veinsmobility  acceleration  ETV
vector 125  Scenario2.node[17].veinsmobility  co2emission  ETV
vector 131  Scenario2.node[18].veinsmobility  acceleration  ETV
vector 132  Scenario2.node[18].veinsmobility  co2emission  ETV
vector 138  Scenario2.node[19].veinsmobility  acceleration  ETV
vector 139  Scenario2.node[19].veinsmobility  co2emission  ETV
vector 145  Scenario2.node[20].veinsmobility  acceleration  ETV
vector 146  Scenario2.node[20].veinsmobility  co2emission  ETV
vector 152  Scenario2.node[21].veinsmobility  acceleration  ETV
vector 153  Scenario2.node[21].veinsmobility  co2emission  ETV
vector 159  Scenario2.node[22].veinsmobility  acceleration  ETV
vector 160  Scenario2.node[22].veinsmobility  co2emission  ETV
vector 166  Scenario2.node[23].veinsmobility  acceleration  ETV
vector 167  Scenario2.node[23].veinsmobility  co2emission  ETV
vector 173  Scenario2.node[24].veinsmobility  acceleration  ETV
vector 174  Scenario2.node[24].veinsmobility  co2emission  ETV
vector 180  Scenario2.node[25].veinsmobility  acceleration  ETV
vector 181  Scenario2.node[25].veinsmobility  co2emission  ETV
vector 187  Scenario2.node[26].veinsmobility  acceleration  ETV
vector 188  Scenario2.node[26].veinsmobility  co2emission  ETV
vector 194  Scenario2.node[27].veinsmobility  acceleration  ETV
vector 195  Scenario2.node[27].veinsmobility  co2emission  ETV
vector 201  Scenario2.node[28].veinsmobility  acceleration  ETV
vector 202  Scenario2.node[28].veinsmobility  co2emission  ETV
vector 208  Scenario2.node[29].veinsmobility  acceleration  ETV
vector 209  Scenario2.node[29].veinsmobility  co2emission  ETV
vector 215  Scenario2.node[30].veinsmobility  acceleration  ETV
vector 216  Scenario2.node[30].veinsmobility  co2emission  ETV
vector 222  Scenario2.node[31].veinsmobility  acceleration  ETV
vector 223  Scenario2.node[31].veinsmobility  co2emission  ETV
vector 229  Scenario2.node[32].veinsmobility  acceleration  ETV
vector 230  Scenario2.node[32].veinsmobility  co2emission  ETV
vector 236  Scenario2.node[33].veinsmobility  acceleration  ETV
vector 237  Scenario2.node[33].veinsmobility  co2emission  ETV
vector 243  Scenario2.node[34].veinsmobility  acceleration  ETV
vector 244  Scenario2.node[34].veinsmobility  co2emission  ETV
vector 250  Scenario2.node[35].veinsmobility  acceleration  ETV
vector 251  Scenario2.node[35].veinsmobility  co2emission  ETV
vector 257  Scenario2.node[36].veinsmobility  acceleration  ETV
vector 258  Scenario2.node[36].veinsmobility  co2emission  ETV
vector 264  Scenario2.node[37].veinsmobility  acceleration  ETV
vector 265  Scenario2.node[37].veinsmobility  co2emission  ETV
vector 271  Scenario2.node[38].veinsmobility  acceleration  ETV
vector 272  Scenario2.node[38].veinsmobility  co2emission  ETV
vector 278  Scenario2.node[39].veinsmobility  acceleration  ETV
vector 279  Scenario2.node[39].veinsmobility  co2emission  ETV
vector 285  Scenario2.node[40].veinsmobility  acceleration  ETV
vector 286  Scenario2.node[40].veinsmobility  co2emission  ETV
vector 292  Scenario2.node[41].veinsmobility  acceleration  ETV
vector 293  Scenario2.node[41].veinsmobility  co2emission  ETV
vector 299  Scenario2.node[42].veinsmobility  acceleration  ETV
vector 300  Scenario2.node[42].veinsmobility  co2emission  ETV
vector 306  Scenario2.node[43].veinsmobility  acceleration  ETV
vector 307  Scenario2.node[43].veinsmobility  co2emission  ETV
vector 313  Scenario2.node[44].veinsmobility  acceleration  ETV
vector 314  Scenario2.node[44].veinsmobility  co2emission  ETV
vector 320  Scenario2.node[45].veinsmobility  acceleration  ETV
vector 321  Scenario2.node[45].veinsmobility  co2emission  ETV
vector 327  Scenario2.node[46].veinsmobility  acceleration  ETV
vector 328  Scenario2.node[46].veinsmobility  co2emission  ETV
vector 333  Scenario2.node[47].veinsmobility  speed  ETV
vector 340  Scenario2.node[48].veinsmobility  speed  ETV
vector 347  Scenario2.node[49].veinsmobility  speed  ETV
vector 354  Scenario2.node[50].veinsmobility  speed  ETV
vector 361  Scenario2.node[51].veinsmobility  speed  ETV
vector 368  Scenario2.node[52].veinsmobility  speed  ETV
vector 375  Scenario2.node[53].veinsmobility  speed  ETV
vector 382  Scenario2.node[54].veinsmobility  speed  ETV
vector 389  Scenario2.node[55].veinsmobility  speed  ETV
vector 396  Scenario2.node[56].veinsmobility  speed  ETV
vector 403  Scenario2.node[57].veinsmobility  speed  ETV
vector 410  Scenario2.node[58].veinsmobility  speed  ETV
vector 417  Scenario2.node[59].veinsmobility  speed  ETV
vector 424  Scenario2.node[60].veinsmobility  speed  ETV
vector 431  Scenario2.node[61].veinsmobility  speed  ETV
vector 438  Scenario2.node[62].veinsmobility  speed  ETV
vector 445  Scenario2.node[63].veinsmobility  speed  ETV
vector 452  Scenario2.node[64].veinsmobility  speed  ETV
vector 459  Scenario2.node[65].veinsmobility  speed  ETV
vector 466  Scenario2.node[66].veinsmobility  speed  ETV
vector 473  Scenario2.node[67].veinsmobility  speed  ETV
vector 480  Scenario2.node[68].veinsmobility  speed  ETV
vector 487  Scenario2.node[69].veinsmobility  speed  ETV
vector 494  Scenario2.node[70].veinsmobility  speed  ETV
vector 501  Scenario2.node[71].veinsmobility  speed  ETV
vector 562  Scenario2.node[80].veinsmobility  posx  ETV
vector 563  Scenario2.node[80].veinsmobility  posy  ETV
vector 569  Scenario2.node[81].veinsmobility  posx  ETV
vector 570  Scenario2.node[81].veinsmobility  posy  ETV
vector 576  Scenario2.node[82].veinsmobility  posx  ETV
vector 577  Scenario2.node[82].veinsmobility  posy  ETV
vector 583  Scenario2.node[83].veinsmobility  posx  ETV
vector 584  Scenario2.node[83].veinsmobility  posy  ETV
vector 590  Scenario2.node[84].veinsmobility  posx  ETV
vector 591  Scenario2.node[84].veinsmobility  posy  ETV
vector 597  Scenario2.node[85].veinsmobility  posx  ETV
vector 598  Scenario2.node[85].veinsmobility  posy  ETV
vector 334  Scenario2.node[47].veinsmobility  acceleration  ETV
vector 335  Scenario2.node[47].veinsmobility  co2emission  ETV
vector 341  Scenario2.node[48].veinsmobility  acceleration  ETV
vector 342  Scenario2.node[48].veinsmobility  co2emission  ETV
vector 348  Scenario2.node[49].veinsmobility  acceleration  ETV
vector 349  Scenario2.node[49].veinsmobility  co2emission  ETV
vector 355  Scenario2.node[50].veinsmobility  acceleration  ETV
vector 356  Scenario2.node[50].veinsmobility  co2emission  ETV
vector 362  Scenario2.node[51].veinsmobility  acceleration  ETV
vector 363  Scenario2.node[51].veinsmobility  co2emission  ETV
vector 369  Scenario2.node[52].veinsmobility  acceleration  ETV
vector 370  Scenario2.node[52].veinsmobility  co2emission  ETV
vector 376  Scenario2.node[53].veinsmobility  acceleration  ETV
vector 377  Scenario2.node[53].veinsmobility  co2emission  ETV
vector 383  Scenario2.node[54].veinsmobility  acceleration  ETV
vector 384  Scenario2.node[54].veinsmobility  co2emission  ETV
vector 390  Scenario2.node[55].veinsmobility  acceleration  ETV
vector 391  Scenario2.node[55].veinsmobility  co2emission  ETV
vector 397  Scenario2.node[56].veinsmobility  acceleration  ETV
vector 398  Scenario2.node[56].veinsmobility  co2emission  ETV
vector 404  Scenario2.node[57].veinsmobility  acceleration  ETV
vector 405  Scenario2.node[57].veinsmobility  co2emission  ETV
vector 411  Scenario2.node[58].veinsmobility  acceleration  ETV
vector 412  Scenario2.node[58].veinsmobility  co2emission  ETV
vector 418  Scenario2.node[59].veinsmobility  acceleration  ETV
vector 419  Scenario2.node[59].veinsmobility  co2emission  ETV
vector 425  Scenario2.node[60].veinsmobility  acceleration  ETV
vector 426  Scenario2.node[60].veinsmobility  co2emission  ETV
vector 432  Scenario2.node[61].veinsmobility  acceleration  ETV
vector 433  Scenario2.node[61].veinsmobility  co2emission  ETV
vector 439  Scenario2.node[62].veinsmobility  acceleration  ETV
vector 440  Scenario2.node[62].veinsmobility  co2emission  ETV
vector 446  Scenario2.node[63].veinsmobility  acceleration  ETV
vector 447  Scenario2.node[63].veinsmobility  co2emission  ETV
vector 453  Scenario2.node[64].veinsmobility  acceleration  ETV
vector 454  Scenario2.node[64].veinsmobility  co2emission  ETV
vector 460  Scenario2.node[65].veinsmobility  acceleration  ETV
vector 461  Scenario2.node[65].veinsmobility  co2emission  ETV
vector 467  Scenario2.node[66].veinsmobility  acceleration  ETV
vector 468  Scenario2.node[66].veinsmobility  co2emission  ETV
vector 474  Scenario2.node[67].veinsmobility  acceleration  ETV
vector 475  Scenario2.node[67].veinsmobility  co2emission  ETV
vector 481  Scenario2.node[68].veinsmobility  acceleration  ETV
vector 482  Scenario2.node[68].veinsmobility  co2emission  ETV
vector 488  Scenario2.node[69].veinsmobility  acceleration  ETV
vector 489  Scenario2.node[69].veinsmobility  co2emission  ETV
vector 495  Scenario2.node[70].veinsmobility  acceleration  ETV
vector 496  Scenario2.node[70].veinsmobility  co2emission  ETV
vector 502  Scenario2.node[71].veinsmobility  acceleration  ETV
vector 503  Scenario2.node[71].veinsmobility  co2emission  ETV
vector 508  Scenario2.node[72].veinsmobility  speed  ETV
vector 515  Scenario2.node[73].veinsmobility  speed  ETV
vector 522  Scenario2.node[74].veinsmobility  speed  ETV
vector 529  Scenario2.node[75].veinsmobility  speed  ETV
vector 536  Scenario2.node[76].veinsmobility  speed  ETV
vector 543  Scenario2.node[77].veinsmobility  speed  ETV
vector 550  Scenario2.node[78].veinsmobility  speed  ETV
vector 557  Scenario2.node[79].veinsmobility  speed  ETV
vector 604  Scenario2.node[86].veinsmobility  posx  ETV
vector 605  Scenario2.node[86].veinsmobility  posy  ETV
vector 611  Scenario2.node[87].veinsmobility  posx  ETV
vector 612  Scenario2.node[87].veinsmobility  posy  ETV
vector 618  Scenario2.node[88].veinsmobility  posx  ETV
vector 619  Scenario2.node[88].veinsmobility  posy  ETV
vector 625  Scenario2.node[89].veinsmobility  posx  ETV
vector 626  Scenario2.node[89].veinsmobility  posy  ETV
vector 632  Scenario2.node[90].veinsmobility  posx  ETV
vector 633  Scenario2.node[90].veinsmobility  posy  ETV
vector 509  Scenario2.node[72].veinsmobility  acceleration  ETV
vector 510  Scenario2.node[72].veinsmobility  co2emission  ETV
vector 516  Scenario2.node[73].veinsmobility  acceleration  ETV
vector 517  Scenario2.node[73].veinsmobility  co2emission  ETV
vector 523  Scenario2.node[74].veinsmobility  acceleration  ETV
vector 524  Scenario2.node[74].veinsmobility  co2emission  ETV
vector 530  Scenario2.node[75].veinsmobility  acceleration  ETV
vector 531  Scenario2.node[75].veinsmobility  co2emission  ETV
vector 537  Scenario2.node[76].veinsmobility  acceleration  ETV
vector 538  Scenario2.node[76].veinsmobility  co2emission  ETV
vector 544  Scenario2.node[77].veinsmobility  acceleration  ETV
vector 545  Scenario2.node[77].veinsmobility  co2emission  ETV
vector 551  Scenario2.node[78].veinsmobility  acceleration  ETV
vector 552  Scenario2.node[78].veinsmobility  co2emission  ETV
vector 558  Scenario2.node[79].veinsmobility  acceleration  ETV
vector 559  Scenario2.node[79].veinsmobility  co2emission  ETV
vector 564  Scenario2.node[80].veinsmobility  speed  ETV
vector 571  Scenario2.node[81].veinsmobility  speed  ETV
vector 578  Scenario2.node[82].veinsmobility  speed  ETV
vector 585  Scenario2.node[83].veinsmobility  speed  ETV
vector 592  Scenario2.node[84].veinsmobility  speed  ETV
vector 599  Scenario2.node[85].veinsmobility  speed  ETV
vector 639  Scenario2.node[91].veinsmobility  posx  ETV
vector 640  Scenario2.node[91].veinsmobility  posy  ETV
vector 646  Scenario2.node[92].veinsmobility  posx  ETV
vector 647  Scenario2.node[92].veinsmobility  posy  ETV
vector 653  Scenario2.node[93].veinsmobility  posx  ETV
vector 654  Scenario2.node[93].veinsmobility  posy  ETV
vector 660  Scenario2.node[94].veinsmobility  posx  ETV
vector 661  Scenario2.node[94].veinsmobility  posy  ETV
vector 667  Scenario2.node[95].veinsmobility  posx  ETV
vector 668  Scenario2.node[95].veinsmobility  posy  ETV
vector 674  Scenario2.node[96].veinsmobility  posx  ETV
vector 675  Scenario2.node[96].veinsmobility  posy  ETV
vector 681  Scenario2.node[97].veinsmobility  posx  ETV
vector 682  Scenario2.node[97].veinsmobility  posy  ETV
vector 565  Scenario2.node[80].veinsmobility  acceleration  ETV
vector 566  Scenario2.node[80].veinsmobility  co2emission  ETV
vector 572  Scenario2.node[81].veinsmobility  acceleration  ETV
vector 573  Scenario2.node[81].veinsmobility  co2emission  ETV
vector 579  Scenario2.node[82].veinsmobility  acceleration  ETV
vector 580  Scenario2.node[82].veinsmobility  co2emission  ETV
vector 586  Scenario2.node[83].veinsmobility  acceleration  ETV
vector 587  Scenario2.node[83].veinsmobility  co2emission  ETV
vector 593  Scenario2.node[84].veinsmobility  acceleration  ETV
vector 594  Scenario2.node[84].veinsmobility  co2emission  ETV
vector 600  Scenario2.node[85].veinsmobility  acceleration  ETV
vector 601  Scenario2.node[85].veinsmobility  co2emission  ETV
vector 606  Scenario2.node[86].veinsmobility  speed  ETV
vector 613  Scenario2.node[87].veinsmobility  speed  ETV
vector 620  Scenario2.node[88].veinsmobility  speed  ETV
vector 627  Scenario2.node[89].veinsmobility  speed  ETV
vector 634  Scenario2.node[90].veinsmobility  speed  ETV
vector 688  Scenario2.node[98].veinsmobility  posx  ETV
vector 689  Scenario2.node[98].veinsmobility  posy  ETV
vector 695  Scenario2.node[99].veinsmobility  posx  ETV
vector 696  Scenario2.node[99].veinsmobility  posy  ETV
vector 702  Scenario2.node[100].veinsmobility  posx  ETV
vector 703  Scenario2.node[100].veinsmobility  posy  ETV
vector 709  Scenario2.node[101].veinsmobility  posx  ETV
vector 710  Scenario2.node[101].veinsmobility  posy  ETV
vector 716  Scenario2.node[102].veinsmobility  posx  ETV
vector 717  Scenario2.node[102].veinsmobility  posy  ETV
vector 723  Scenario2.node[103].veinsmobility  posx  ETV
vector 724  Scenario2.node[103].veinsmobility  posy  ETV
vector 730  Scenario2.node[104].veinsmobility  posx  ETV
vector 731  Scenario2.node[104].veinsmobility  posy  ETV
vector 737  Scenario2.node[105].veinsmobility  posx  ETV
vector 738  Scenario2.node[105].veinsmobility  posy  ETV
vector 744  Scenario2.node[106].veinsmobility  posx  ETV
vector 745  Scenario2.node[106].veinsmobility  posy  ETV
vector 607  Scenario2.node[86].veinsmobility  acceleration  ETV
vector 608  Scenario2.node[86].veinsmobility  co2emission  ETV
vector 614  Scenario2.node[87].veinsmobility  acceleration  ETV
vector 615  Scenario2.node[87].veinsmobility  co2emission  ETV
vector 621  Scenario2.node[88].veinsmobility  acceleration  ETV
vector 622  Scenario2.node[88].veinsmobility  co2emission  ETV
vector 628  Scenario2.node[89].veinsmobility  acceleration  ETV
vector 629  Scenario2.node[89].veinsmobility  co2emission  ETV
vector 635  Scenario2.node[90].veinsmobility  acceleration  ETV
vector 636  Scenario2.node[90].veinsmobility  co2emission  ETV
vector 641  Scenario2.node[91].veinsmobility  speed  ETV
vector 648  Scenario2.node[92].veinsmobility  speed  ETV
vector 655  Scenario2.node[93].veinsmobility  speed  ETV
vector 662  Scenario2.node[94].veinsmobility  speed  ETV
vector 669  Scenario2.node[95].veinsmobility  speed  ETV
vector 676  Scenario2.node[96].veinsmobility  speed  ETV
vector 683  Scenario2.node[97].veinsmobility  speed  ETV
vector 751  Scenario2.node[107].veinsmobility  posx  ETV
vector 752  Scenario2.node[107].veinsmobility  posy  ETV
vector 758  Scenario2.node[108].veinsmobility  posx  ETV
vector 759  Scenario2.node[108].veinsmobility  posy  ETV
vector 765  Scenario2.node[109].veinsmobility  posx  ETV
vector 766  Scenario2.node[109].veinsmobility  posy  ETV
vector 772  Scenario2.node[110].veinsmobility  posx  ETV
vector 773  Scenario2.node[110].veinsmobility  posy  ETV
vector 779  Scenario2.node[111].veinsmobility  posx  ETV
vector 780  Scenario2.node[111].veinsmobility  posy  ETV
vector 786  Scenario2.node[112].veinsmobility  posx  ETV
vector 787  Scenario2.node[112].veinsmobility  posy  ETV
vector 793  Scenario2.node[113].veinsmobility  posx  ETV
vector 794  Scenario2.node[113].veinsmobility  posy  ETV
vector 800  Scenario2.node[114].veinsmobility  posx  ETV
vector 801  Scenario2.node[114].veinsmobility  posy  ETV
vector 642  Scenario2.node[91].veinsmobility  acceleration  ETV
vector 643  Scenario2.node[91].veinsmobility  co2emission  ETV
vector 649  Scenario2.node[92].veinsmobility  acceleration  ETV
vector 650  Scenario2.node[92].veinsmobility  co2emission  ETV
vector 656  Scenario2.node[93].veinsmobility  acceleration  ETV
vector 657  Scenario2.node[93].veinsmobility  co2emission  ETV
vector 663  Scenario2.node[94].veinsmobility  acceleration  ETV
vector 664  Scenario2.node[94].veinsmobility  co2emission  ETV
vector 670  Scenario2.node[95].veinsmobility  acceleration  ETV
vector 671  Scenario2.node[95].veinsmobility  co2emission  ETV
vector 677  Scenario2.node[96].veinsmobility  acceleration  ETV
vector 678  Scenario2.node[96].veinsmobility  co2emission  ETV
vector 684  Scenario2.node[97].veinsmobility  acceleration  ETV
vector 685  Scenario2.node[97].veinsmobility  co2emission  ETV
vector 690  Scenario2.node[98].veinsmobility  speed  ETV
vector 697  Scenario2.node[99].veinsmobility  speed  ETV
vector 704  Scenario2.node[100].veinsmobility  speed  ETV
vector 711  Scenario2.node[101].veinsmobility  speed  ETV
vector 718  Scenario2.node[102].veinsmobility  speed  ETV
vector 725  Scenario2.node[103].veinsmobility  speed  ETV
vector 732  Scenario2.node[104].veinsmobility  speed  ETV
vector 739  Scenario2.node[105].veinsmobility  speed  ETV
vector 746  Scenario2.node[106].veinsmobility  speed  ETV
vector 807  Scenario2.node[115].veinsmobility  posx  ETV
vector 808  Scenario2.node[115].veinsmobility  posy  ETV
vector 814  Scenario2.node[116].veinsmobility  posx  ETV
vector 815  Scenario2.node[116].veinsmobility  posy  ETV
vector 821  Scenario2.node[117].veinsmobility  posx  ETV
vector 822  Scenario2.node[117].veinsmobility  posy  ETV
vector 691  Scenario2.node[98].veinsmobility  acceleration  ETV
vector 692  Scenario2.node[98].veinsmobility  co2emission  ETV
vector 698  Scenario2.node[99].veinsmobility  acceleration  ETV
vector 699  Scenario2.node[99].veinsmobility  co2emission  ETV
vector 705  Scenario2.node[100].veinsmobility  acceleration  ETV
vector 706  Scenario2.node[100].veinsmobility  co2emission  ETV
vector 712  Scenario2.node[101].veinsmobility  acceleration  ETV
vector 713  Scenario2.node[101].veinsmobility  co2emission  ETV
vector 719  Scenario2.node[102].veinsmobility  acceleration  ETV
vector 720  Scenario2.node[102].veinsmobility  co2emission  ETV
vector 726  Scenario2.node[103].veinsmobility  acceleration  ETV
vector 727  Scenario2.node[103].veinsmobility  co2emission  ETV
vector 733  Scenario2.node[104].veinsmobility  acceleration  ETV
vector 734  Scenario2.node[104].veinsmobility  co2emission  ETV
vector 740  Scenario2.node[105].veinsmobility  acceleration  ETV
vector 741  Scenario2.node[105].veinsmobility  co2emission  ETV
vector 747  Scenario2.node[106].veinsmobility  acceleration  ETV
vector 748  Scenario2.node[106].veinsmobility  co2emission  ETV
vector 753  Scenario2.node[107].veinsmobility  speed  ETV
vector 760  Scenario2.node[108].veinsmobility  speed  ETV
vector 767  Scenario2.node[109].veinsmobility  speed  ETV
vector 774  Scenario2.node[110].veinsmobility  speed  ETV
vector 781  Scenario2.node[111].veinsmobility  speed  ETV
vector 788  Scenario2.node[112].veinsmobility  speed  ETV
vector 795  Scenario2.node[113].veinsmobility  speed  ETV
vector 802  Scenario2.node[114].veinsmobility  speed  ETV
vector 828  Scenario2.node[118].veinsmobility  posx  ETV
vector 829  Scenario2.node[118].veinsmobility  posy  ETV
vector 835  Scenario2.node[119].veinsmobility  posx  ETV
vector 836  Scenario2.node[119].veinsmobility  posy  ETV
vector 842  Scenario2.node[120].veinsmobility  posx  ETV
vector 843  Scenario2.node[120].veinsmobility  posy  ETV
vector 849  Scenario2.node[121].veinsmobility  posx  ETV
vector 850  Scenario2.node[121].veinsmobility  posy  ETV
vector 856  Scenario2.node[122].veinsmobility  posx  ETV
vector 857  Scenario2.node[122].veinsmobility  posy  ETV
vector 754  Scenario2.node[107].veinsmobility  acceleration  ETV
vector 755  Scenario2.node[107].veinsmobility  co2emission  ETV
vector 761  Scenario2.node[108].veinsmobility  acceleration  ETV
vector 762  Scenario2.node[108].veinsmobility  co2emission  ETV
vector 768  Scenario2.node[109].veinsmobility  acceleration  ETV
vector 769  Scenario2.node[109].veinsmobility  co2emission  ETV
vector 775  Scenario2.node[110].veinsmobility  acceleration  ETV
vector 776  Scenario2.node[110].veinsmobility  co2emission  ETV
vector 782  Scenario2.node[111].veinsmobility  acceleration  ETV
vector 783  Scenario2.node[111].veinsmobility  co2emission  ETV
vector 789  Scenario2.node[112].veinsmobility  acceleration  ETV
vector 790  Scenario2.node[112].veinsmobility  co2emission  ETV
vector 796  Scenario2.node[113].veinsmobility  acceleration  ETV
vector 797  Scenario2.node[113].veinsmobility  co2emission  ETV
vector 803  Scenario2.node[114].veinsmobility  acceleration  ETV
vector 804  Scenario2.node[114].veinsmobility  co2emission  ETV
vector 809  Scenario2.node[115].veinsmobility  speed  ETV
vector 816  Scenario2.node[116].veinsmobility  speed  ETV
vector 823  Scenario2.node[117].veinsmobility  speed  ETV
vector 863  Scenario2.node[123].veinsmobility  posx  ETV
vector 864  Scenario2.node[123].veinsmobility  posy  ETV
vector 870  Scenario2.node[124].veinsmobility  posx  ETV
vector 871  Scenario2.node[124].veinsmobility  posy  ETV
vector 877  Scenario2.node[125].veinsmobility  posx  ETV
vector 878  Scenario2.node[125].veinsmobility  posy  ETV
vector 884  Scenario2.node[126].veinsmobility  posx  ETV
vector 885  Scenario2.node[126].veinsmobility  posy  ETV
vector 810  Scenario2.node[115].veinsmobility  acceleration  ETV
vector 811  Scenario2.node[115].veinsmobility  co2emission  ETV
vector 817  Scenario2.node[116].veinsmobility  acceleration  ETV
vector 818  Scenario2.node[116].veinsmobility  co2emission  ETV
vector 824  Scenario2.node[117].veinsmobility  acceleration  ETV
vector 825  Scenario2.node[117].veinsmobility  co2emission  ETV
vector 830  Scenario2.node[118].veinsmobility  speed  ETV
vector 837  Scenario2.node[119].veinsmobility  speed  ETV
vector 844  Scenario2.node[120].veinsmobility  speed  ETV
vector 851  Scenario2.node[121].veinsmobility  speed  ETV
vector 858  Scenario2.node[122].veinsmobility  speed  ETV
vector 891  Scenario2.node[127].veinsmobility  posx  ETV
vector 892  Scenario2.node[127].veinsmobility  posy  ETV
vector 898  Scenario2.node[128].veinsmobility  posx  ETV
vector 899  Scenario2.node[128].veinsmobility  posy  ETV
vector 905  Scenario2.node[129].veinsmobility  posx  ETV
vector 906  Scenario2.node[129].veinsmobility  posy  ETV
vector 912  Scenario2.node[130].veinsmobility  posx  ETV
vector 913  Scenario2.node[130].veinsmobility  posy  ETV
vector 831  Scenario2.node[118].veinsmobility  acceleration  ETV
vector 832  Scenario2.node[118].veinsmobility  co2emission  ETV
vector 838  Scenario2.node[119].veinsmobility  acceleration  ETV
vector 839  Scenario2.node[119].veinsmobility  co2emission  ETV
vector 845  Scenario2.node[120].veinsmobility  acceleration  ETV
vector 846  Scenario2.node[120].veinsmobility  co2emission  ETV
vector 852  Scenario2.node[121].veinsmobility  acceleration  ETV
vector 853  Scenario2.node[121].veinsmobility  co2emission  ETV
vector 859  Scenario2.node[122].veinsmobility  acceleration  ETV
vector 860  Scenario2.node[122].veinsmobility  co2emission  ETV
vector 865  Scenario2.node[123].veinsmobility  speed  ETV
vector 872  Scenario2.node[124].veinsmobility  speed  ETV
vector 879  Scenario2.node[125].veinsmobility  speed  ETV
vector 886  Scenario2.node[126].veinsmobility  speed  ETV
vector 919  Scenario2.node[131].veinsmobility  posx  ETV
vector 920  Scenario2.node[131].veinsmobility  posy  ETV
vector 926  Scenario2.node[132].veinsmobility  posx  ETV
vector 927  Scenario2.node[132].veinsmobility  posy  ETV
vector 933  Scenario2.node[133].veinsmobility  posx  ETV
vector 934  Scenario2.node[133].veinsmobility  posy  ETV
vector 866  Scenario2.node[123].veinsmobility  acceleration  ETV
vector 867  Scenario2.node[123].veinsmobility  co2emission  ETV
vector 873  Scenario2.node[124].veinsmobility  acceleration  ETV
vector 874  Scenario2.node[124].veinsmobility  co2emission  ETV
vector 880  Scenario2.node[125].veinsmobility  acceleration  ETV
vector 881  Scenario2.node[125].veinsmobility  co2emission  ETV
vector 887  Scenario2.node[126].veinsmobility  acceleration  ETV
vector 888  Scenario2.node[126].veinsmobility  co2emission  ETV
vector 893  Scenario2.node[127].veinsmobility  speed  ETV
vector 900  Scenario2.node[128].veinsmobility  speed  ETV
vector 907  Scenario2.node[129].veinsmobility  speed  ETV
vector 914  Scenario2.node[130].veinsmobility  speed  ETV
vector 940  Scenario2.node[134].veinsmobility  posx  ETV
vector 941  Scenario2.node[134].veinsmobility  posy  ETV
vector 947  Scenario2.node[135].veinsmobility  posx  ETV
vector 948  Scenario2.node[135].veinsmobility  posy  ETV
vector 954  Scenario2.node[136].veinsmobility  posx  ETV
vector 955  Scenario2.node[136].veinsmobility  posy  ETV
vector 894  Scenario2.node[127].veinsmobility  acceleration  ETV
vector 895  Scenario2.node[127].veinsmobility  co2emission  ETV
vector 901  Scenario2.node[128].veinsmobility  acceleration  ETV
vector 902  Scenario2.node[128].veinsmobility  co2emission  ETV
vector 908  Scenario2.node[129].veinsmobility  acceleration  ETV
vector 909  Scenario2.node[129].veinsmobility  co2emission  ETV
vector 915  Scenario2.node[130].veinsmobility  acceleration  ETV
vector 916  Scenario2.node[130].veinsmobility  co2emission  ETV
vector 921  Scenario2.node[131].veinsmobility  speed  ETV
vector 928  Scenario2.node[132].veinsmobility  speed  ETV
vector 935  Scenario2.node[133].veinsmobility  speed  ETV
vector 961  Scenario2.node[137].veinsmobility  posx  ETV
vector 962  Scenario2.node[137].veinsmobility  posy  ETV
vector 968  Scenario2.node[138].veinsmobility  posx  ETV
vector 969  Scenario2.node[138].veinsmobility  posy  ETV
vector 975  Scenario2.node[139].veinsmobility  posx  ETV
vector 976  Scenario2.node[139].veinsmobility  posy  ETV
vector 982  Scenario2.node[140].veinsmobility  posx  ETV
vector 983  Scenario2.node[140].veinsmobility  posy  ETV
vector 989  Scenario2.node[141].veinsmobility  posx  ETV
vector 990  Scenario2.node[141].veinsmobility  posy  ETV
vector 996  Scenario2.node[142].veinsmobility  posx  ETV
vector 997  Scenario2.node[142].veinsmobility  posy  ETV
vector 922  Scenario2.node[131].veinsmobility  acceleration  ETV
vector 923  Scenario2.node[131].veinsmobility  co2emission  ETV
vector 929  Scenario2.node[132].veinsmobility  acceleration  ETV
vector 930  Scenario2.node[132].veinsmobility  co2emission  ETV
vector 936  Scenario2.node[133].veinsmobility  acceleration  ETV
vector 937  Scenario2.node[133].veinsmobility  co2emission  ETV
vector 942  Scenario2.node[134].veinsmobility  speed  ETV
vector 949  Scenario2.node[135].veinsmobility  speed  ETV
vector 956  Scenario2.node[136].veinsmobility  speed  ETV
vector 1003  Scenario2.node[143].veinsmobility  posx  ETV
vector 1004  Scenario2.node[143].veinsmobility  posy  ETV
vector 1010  Scenario2.node[144].veinsmobility  posx  ETV
vector 1011  Scenario2.node[144].veinsmobility  posy  ETV
vector 1017  Scenario2.node[145].veinsmobility  posx  ETV
vector 1018  Scenario2.node[145].veinsmobility  posy  ETV
vector 1024  Scenario2.node[146].veinsmobility  posx  ETV
vector 1025  Scenario2.node[146].veinsmobility  posy  ETV
vector 1031  Scenario2.node[147].veinsmobility  posx  ETV
vector 1032  Scenario2.node[147].veinsmobility  posy  ETV
vector 1038  Scenario2.node[148].veinsmobility  posx  ETV
vector 1039  Scenario2.node[148].veinsmobility  posy  ETV
vector 1045  Scenario2.node[149].veinsmobility  posx  ETV
vector 1046  Scenario2.node[149].veinsmobility  posy  ETV
vector 1052  Scenario2.node[150].veinsmobility  posx  ETV
vector 1053  Scenario2.node[150].veinsmobility  posy  ETV
vector 1059  Scenario2.node[151].veinsmobility  posx  ETV
vector 1060  Scenario2.node[151].veinsmobility  posy  ETV
vector 1066  Scenario2.node[152].veinsmobility  posx  ETV
vector 1067  Scenario2.node[152].veinsmobility  posy  ETV
vector 1073  Scenario2.node[153].veinsmobility  posx  ETV
vector 1074  Scenario2.node[153].veinsmobility  posy  ETV
vector 1080  Scenario2.node[154].veinsmobility  posx  ETV
vector 1081  Scenario2.node[154].veinsmobility  posy  ETV
vector 943  Scenario2.node[134].veinsmobility  acceleration  ETV
vector 944  Scenario2.node[134].veinsmobility  co2emission  ETV
vector 950  Scenario2.node[135].veinsmobility  acceleration  ETV
vector 951  Scenario2.node[135].veinsmobility  co2emission  ETV
vector 957  Scenario2.node[136].veinsmobility  acceleration  ETV
vector 958  Scenario2.node[136].veinsmobility  co2emission  ETV
vector 963  Scenario2.node[137].veinsmobility  speed  ETV
vector 970  Scenario2.node[138].veinsmobility  speed  ETV
vector 977  Scenario2.node[139].veinsmobility  speed  ETV
vector 984  Scenario2.node[140].veinsmobility  speed  ETV
vector 991  Scenario2.node[141].veinsmobility  speed  ETV
vector 998  Scenario2.node[142].veinsmobility  speed  ETV
vector 1087  Scenario2.node[155].veinsmobility  posx  ETV
vector 1088  Scenario2.node[155].veinsmobility  posy  ETV
vector 1094  Scenario2.node[156].veinsmobility  posx  ETV
vector 1095  Scenario2.node[156].veinsmobility  posy  ETV
vector 1101  Scenario2.node[157].veinsmobility  posx  ETV
vector 1102  Scenario2.node[157].veinsmobility  posy  ETV
vector 1108  Scenario2.node[158].veinsmobility  posx  ETV
vector 1109  Scenario2.node[158].veinsmobility  posy  ETV
vector 1115  Scenario2.node[159].veinsmobility  posx  ETV
vector 1116  Scenario2.node[159].veinsmobility  posy  ETV
vector 964  Scenario2.node[137].veinsmobility  acceleration  ETV
vector 965  Scenario2.node[137].veinsmobility  co2emission  ETV
vector 971  Scenario2.node[138].veinsmobility  acceleration  ETV
vector 972  Scenario2.node[138].veinsmobility  co2emission  ETV
vector 978  Scenario2.node[139].veinsmobility  acceleration  ETV
vector 979  Scenario2.node[139].veinsmobility  co2emission  ETV
vector 985  Scenario2.node[140].veinsmobility  acceleration  ETV
vector 986  Scenario2.node[140].veinsmobility  co2emission  ETV
vector 992  Scenario2.node[141].veinsmobility  acceleration  ETV
vector 993  Scenario2.node[141].veinsmobility  co2emission  ETV
vector 999  Scenario2.node[142].veinsmobility  acceleration  ETV
vector 1000  Scenario2.node[142].veinsmobility  co2emission  ETV
vector 1005  Scenario2.node[143].veinsmobility  speed  ETV
vector 1012  Scenario2.node[144].veinsmobility  speed  ETV
vector 1019  Scenario2.node[145].veinsmobility  speed  ETV
vector 1026  Scenario2.node[146].veinsmobility  speed  ETV
vector 1033  Scenario2.node[147].veinsmobility  speed  ETV
vector 1040  Scenario2.node[148].veinsmobility  speed  ETV
vector 1047  Scenario2.node[149].veinsmobility  speed  ETV
vector 1054  Scenario2.node[150].veinsmobility  speed  ETV
vector 1061  Scenario2.node[151].veinsmobility  speed  ETV
vector 1068  Scenario2.node[152].veinsmobility  speed  ETV
vector 1075  Scenario2.node[153].veinsmobility  speed  ETV
vector 1082  Scenario2.node[154].veinsmobility  speed  ETV
vector 1122  Scenario2.node[160].veinsmobility  posx  ETV
vector 1123  Scenario2.node[160].veinsmobility  posy  ETV
vector 1129  Scenario2.node[161].veinsmobility  posx  ETV
vector 1130  Scenario2.node[161].veinsmobility  posy  ETV
vector 1136  Scenario2.node[162].veinsmobility  posx  ETV
vector 1137  Scenario2.node[162].veinsmobility  posy  ETV
vector 1143  Scenario2.node[163].veinsmobility  posx  ETV
vector 1144  Scenario2.node[163].veinsmobility  posy  ETV
vector 1150  Scenario2.node[164].veinsmobility  posx  ETV
vector 1151  Scenario2.node[164].veinsmobility  posy  ETV
vector 1157  Scenario2.node[165].veinsmobility  posx  ETV
vector 1158  Scenario2.node[165].veinsmobility  posy  ETV
vector 1006  Scenario2.node[143].veinsmobility  acceleration  ETV
vector 1007  Scenario2.node[143].veinsmobility  co2emission  ETV
vector 1013  Scenario2.node[144].veinsmobility  acceleration  ETV
vector 1014  Scenario2.node[144].veinsmobility  co2emission  ETV
vector 1020  Scenario2.node[145].veinsmobility  acceleration  ETV
vector 1021  Scenario2.node[145].veinsmobility  co2emission  ETV
vector 1027  Scenario2.node[146].veinsmobility  acceleration  ETV
vector 1028  Scenario2.node[146].veinsmobility  co2emission  ETV
vector 1034  Scenario2.node[147].veinsmobility  acceleration  ETV
vector 1035  Scenario2.node[147].veinsmobility  co2emission  ETV
vector 1041  Scenario2.node[148].veinsmobility  acceleration  ETV
vector 1042  Scenario2.node[148].veinsmobility  co2emission  ETV
vector 1048  Scenario2.node[149].veinsmobility  acceleration  ETV
vector 1049  Scenario2.node[149].veinsmobility  co2emission  ETV
vector 1055  Scenario2.node[150].veinsmobility  acceleration  ETV
vector 1056  Scenario2.node[150].veinsmobility  co2emission  ETV
vector 1062  Scenario2.node[151].veinsmobility  acceleration  ETV
vector 1063  Scenario2.node[151].veinsmobility  co2emission  ETV
vector 1069  Scenario2.node[152].veinsmobility  acceleration  ETV
vector 1070  Scenario2.node[152].veinsmobility  co2emission  ETV
vector 1076  Scenario2.node[153].veinsmobility  acceleration  ETV
vector 1077  Scenario2.node[153].veinsmobility  co2emission  ETV
vector 1083  Scenario2.node[154].veinsmobility  acceleration  ETV
vector 1084  Scenario2.node[154].veinsmobility  co2emission  ETV
vector 1089  Scenario2.node[155].veinsmobility  speed  ETV
vector 1096  Scenario2.node[156].veinsmobility  speed  ETV
vector 1103  Scenario2.node[157].veinsmobility  speed  ETV
vector 1110  Scenario2.node[158].veinsmobility  speed  ETV
vector 1117  Scenario2.node[159].veinsmobility  speed  ETV
vector 1164  Scenario2.node[166].veinsmobility  posx  ETV
vector 1165  Scenario2.node[166].veinsmobility  posy  ETV
vector 1171  Scenario2.node[167].veinsmobility  posx  ETV
vector 1172  Scenario2.node[167].veinsmobility  posy  ETV
vector 1090  Scenario2.node[155].veinsmobility  acceleration  ETV
vector 1091  Scenario2.node[155].veinsmobility  co2emission  ETV
vector 1097  Scenario2.node[156].veinsmobility  acceleration  ETV
vector 1098  Scenario2.node[156].veinsmobility  co2emission  ETV
vector 1104  Scenario2.node[157].veinsmobility  acceleration  ETV
vector 1105  Scenario2.node[157].veinsmobility  co2emission  ETV
vector 1111  Scenario2.node[158].veinsmobility  acceleration  ETV
vector 1112  Scenario2.node[158].veinsmobility  co2emission  ETV
vector 1118  Scenario2.node[159].veinsmobility  acceleration  ETV
vector 1119  Scenario2.node[159].veinsmobility  co2emission  ETV
vector 1124  Scenario2.node[160].veinsmobility  speed  ETV
vector 1131  Scenario2.node[161].veinsmobility  speed  ETV
vector 1138  Scenario2.node[162].veinsmobility  speed  ETV
vector 1145  Scenario2.node[163].veinsmobility  speed  ETV
vector 1152  Scenario2.node[164].veinsmobility  speed  ETV
vector 1159  Scenario2.node[165].veinsmobility  speed  ETV
vector 1178  Scenario2.node[168].veinsmobility  posx  ETV
vector 1179  Scenario2.node[168].veinsmobility  posy  ETV
vector 1185  Scenario2.node[169].veinsmobility  posx  ETV
vector 1186  Scenario2.node[169].veinsmobility  posy  ETV
vector 1192  Scenario2.node[170].veinsmobility  posx  ETV
vector 1193  Scenario2.node[170].veinsmobility  posy  ETV
vector 1199  Scenario2.node[171].veinsmobility  posx  ETV
vector 1200  Scenario2.node[171].veinsmobility  posy  ETV
vector 1206  Scenario2.node[172].veinsmobility  posx  ETV
vector 1207  Scenario2.node[172].veinsmobility  posy  ETV
vector 1125  Scenario2.node[160].veinsmobility  acceleration  ETV
vector 1126  Scenario2.node[160].veinsmobility  co2emission  ETV
vector 1132  Scenario2.node[161].veinsmobility  acceleration  ETV
vector 1133  Scenario2.node[161].veinsmobility  co2emission  ETV
vector 1139  Scenario2.node[162].veinsmobility  acceleration  ETV
vector 1140  Scenario2.node[162].veinsmobility  co2emission  ETV
vector 1146  Scenario2.node[163].veinsmobility  acceleration  ETV
vector 1147  Scenario2.node[163].veinsmobility  co2emission  ETV
vector 1153  Scenario2.node[164].veinsmobility  acceleration  ETV
vector 1154  Scenario2.node[164].veinsmobility  co2emission  ETV
vector 1160  Scenario2.node[165].veinsmobility  acceleration  ETV
vector 1161  Scenario2.node[165].veinsmobility  co2emission  ETV
vector 1166  Scenario2.node[166].veinsmobility  speed  ETV
vector 1173  Scenario2.node[167].veinsmobility  speed  ETV
vector 1213  Scenario2.node[173].veinsmobility  posx  ETV
vector 1214  Scenario2.node[173].veinsmobility  posy  ETV
vector 1220  Scenario2.node[174].veinsmobility  posx  ETV
vector 1221  Scenario2.node[174].veinsmobility  posy  ETV
vector 1227  Scenario2.node[175].veinsmobility  posx  ETV
vector 1228  Scenario2.node[175].veinsmobility  posy  ETV
vector 1167  Scenario2.node[166].veinsmobility  acceleration  ETV
vector 1168  Scenario2.node[166].veinsmobility  co2emission  ETV
vector 1174  Scenario2.node[167].veinsmobility  acceleration  ETV
vector 1175  Scenario2.node[167].veinsmobility  co2emission  ETV
vector 1180  Scenario2.node[168].veinsmobility  speed  ETV
vector 1187  Scenario2.node[169].veinsmobility  speed  ETV
vector 1194  Scenario2.node[170].veinsmobility  speed  ETV
vector 1201  Scenario2.node[171].veinsmobility  speed  ETV
vector 1208  Scenario2.node[172].veinsmobility  speed  ETV
vector 1234  Scenario2.node[176].veinsmobility  posx  ETV
vector 1235  Scenario2.node[176].veinsmobility  posy  ETV
vector 1241  Scenario2.node[177].veinsmobility  posx  ETV
vector 1242  Scenario2.node[177].veinsmobility  posy  ETV
vector 1181  Scenario2.node[168].veinsmobility  acceleration  ETV
vector 1182  Scenario2.node[168].veinsmobility  co2emission  ETV
vector 1188  Scenario2.node[169].veinsmobility  acceleration  ETV
vector 1189  Scenario2.node[169].veinsmobility  co2emission  ETV
vector 1195  Scenario2.node[170].veinsmobility  acceleration  ETV
vector 1196  Scenario2.node[170].veinsmobility  co2emission  ETV
vector 1202  Scenario2.node[171].veinsmobility  acceleration  ETV
vector 1203  Scenario2.node[171].veinsmobility  co2emission  ETV
vector 1209  Scenario2.node[172].veinsmobility  acceleration  ETV
vector 1210  Scenario2.node[172].veinsmobility  co2emission  ETV
vector 1215  Scenario2.node[173].veinsmobility  speed  ETV
vector 1222  Scenario2.node[174].veinsmobility  speed  ETV
vector 1229  Scenario2.node[175].veinsmobility  speed  ETV
vector 1248  Scenario2.node[178].veinsmobility  posx  ETV
vector 1249  Scenario2.node[178].veinsmobility  posy  ETV
vector 1255  Scenario2.node[179].veinsmobility  posx  ETV
vector 1256  Scenario2.node[179].veinsmobility  posy  ETV
vector 1262  Scenario2.node[180].veinsmobility  posx  ETV
vector 1263  Scenario2.node[180].veinsmobility  posy  ETV
vector 1269  Scenario2.node[181].veinsmobility  posx  ETV
vector 1270  Scenario2.node[181].veinsmobility  posy  ETV
vector 1276  Scenario2.node[182].veinsmobility  posx  ETV
vector 1277  Scenario2.node[182].veinsmobility  posy  ETV
vector 1283  Scenario2.node[183].veinsmobility  posx  ETV
vector 1284  Scenario2.node[183].veinsmobility  posy  ETV
vector 1290  Scenario2.node[184].veinsmobility  posx  ETV
vector 1291  Scenario2.node[184].veinsmobility  posy  ETV
vector 1216  Scenario2.node[173].veinsmobility  acceleration  ETV
vector 1217  Scenario2.node[173].veinsmobility  co2emission  ETV
vector 1223  Scenario2.node[174].veinsmobility  acceleration  ETV
vector 1224  Scenario2.node[174].veinsmobility  co2emission  ETV
vector 1230  Scenario2.node[175].veinsmobility  acceleration  ETV
vector 1231  Scenario2.node[175].veinsmobility  co2emission  ETV
vector 1236  Scenario2.node[176].veinsmobility  speed  ETV
vector 1243  Scenario2.node[177].veinsmobility  speed  ETV
vector 1297  Scenario2.node[185].veinsmobility  posx  ETV
vector 1298  Scenario2.node[185].veinsmobility  posy  ETV
vector 1304  Scenario2.node[186].veinsmobility  posx  ETV
vector 1305  Scenario2.node[186].veinsmobility  posy  ETV
vector 1311  Scenario2.node[187].veinsmobility  posx  ETV
vector 1312  Scenario2.node[187].veinsmobility  posy  ETV
vector 1318  Scenario2.node[188].veinsmobility  posx  ETV
vector 1319  Scenario2.node[188].veinsmobility  posy  ETV
vector 1237  Scenario2.node[176].veinsmobility  acceleration  ETV
vector 1238  Scenario2.node[176].veinsmobility  co2emission  ETV
vector 1244  Scenario2.node[177].veinsmobility  acceleration  ETV
vector 1245  Scenario2.node[177].veinsmobility  co2emission  ETV
vector 1250  Scenario2.node[178].veinsmobility  speed  ETV
vector 1257  Scenario2.node[179].veinsmobility  speed  ETV
vector 1264  Scenario2.node[180].veinsmobility  speed  ETV
vector 1271  Scenario2.node[181].veinsmobility  speed  ETV
vector 1278  Scenario2.node[182].veinsmobility  speed  ETV
vector 1285  Scenario2.node[183].veinsmobility  speed  ETV
vector 1292  Scenario2.node[184].veinsmobility  speed  ETV
vector 1325  Scenario2.node[189].veinsmobility  posx  ETV
vector 1326  Scenario2.node[189].veinsmobility  posy  ETV
vector 1332  Scenario2.node[190].veinsmobility  posx  ETV
vector 1333  Scenario2.node[190].veinsmobility  posy  ETV
vector 1339  Scenario2.node[191].veinsmobility  posx  ETV
vector 1340  Scenario2.node[191].veinsmobility  posy  ETV
vector 1251  Scenario2.node[178].veinsmobility  acceleration  ETV
vector 1252  Scenario2.node[178].veinsmobility  co2emission  ETV
vector 1258  Scenario2.node[179].veinsmobility  acceleration  ETV
vector 1259  Scenario2.node[179].veinsmobility  co2emission  ETV
vector 1265  Scenario2.node[180].veinsmobility  acceleration  ETV
vector 1266  Scenario2.node[180].veinsmobility  co2emission  ETV
vector 1272  Scenario2.node[181].veinsmobility  acceleration  ETV
vector 1273  Scenario2.node[181].veinsmobility  co2emission  ETV
vector 1279  Scenario2.node[182].veinsmobility  acceleration  ETV
vector 1280  Scenario2.node[182].veinsmobility  co2emission  ETV
vector 1286  Scenario2.node[183].veinsmobility  acceleration  ETV
vector 1287  Scenario2.node[183].veinsmobility  co2emission  ETV
vector 1293  Scenario2.node[184].veinsmobility  acceleration  ETV
vector 1294  Scenario2.node[184].veinsmobility  co2emission  ETV
vector 1299  Scenario2.node[185].veinsmobility  speed  ETV
vector 1306  Scenario2.node[186].veinsmobility  speed  ETV
vector 1313  Scenario2.node[187].veinsmobility  speed  ETV
vector 1320  Scenario2.node[188].veinsmobility  speed  ETV
vector 1346  Scenario2.node[192].veinsmobility  posx  ETV
vector 1347  Scenario2.node[192].veinsmobility  posy  ETV
vector 1353  Scenario2.node[193].veinsmobility  posx  ETV
vector 1354  Scenario2.node[193].veinsmobility  posy  ETV
vector 1360  Scenario2.node[194].veinsmobility  posx  ETV
vector 1361  Scenario2.node[194].veinsmobility  posy  ETV
vector 1300  Scenario2.node[185].veinsmobility  acceleration  ETV
vector 1301  Scenario2.node[185].veinsmobility  co2emission  ETV
vector 1307  Scenario2.node[186].veinsmobility  acceleration  ETV
vector 1308  Scenario2.node[186].veinsmobility  co2emission  ETV
vector 1314  Scenario2.node[187].veinsmobility  acceleration  ETV
vector 1315  Scenario2.node[187].veinsmobility  co2emission  ETV
vector 1321  Scenario2.node[188].veinsmobility  acceleration  ETV
vector 1322  Scenario2.node[188].veinsmobility  co2emission  ETV
vector 1327  Scenario2.node[189].veinsmobility  speed  ETV
vector 1334  Scenario2.node[190].veinsmobility  speed  ETV
vector 1341  Scenario2.node[191].veinsmobility  speed  ETV
vector 1367  Scenario2.node[195].veinsmobility  posx  ETV
vector 1368  Scenario2.node[195].veinsmobility  posy  ETV
vector 1374  Scenario2.node[196].veinsmobility  posx  ETV
vector 1375  Scenario2.node[196].veinsmobility  posy  ETV
vector 1381  Scenario2.node[197].veinsmobility  posx  ETV
vector 1382  Scenario2.node[197].veinsmobility  posy  ETV
vector 1388  Scenario2.node[198].veinsmobility  posx  ETV
vector 1389  Scenario2.node[198].veinsmobility  posy  ETV
vector 1328  Scenario2.node[189].veinsmobility  acceleration  ETV
vector 1329  Scenario2.node[189].veinsmobility  co2emission  ETV
vector 1335  Scenario2.node[190].veinsmobility  acceleration  ETV
vector 1336  Scenario2.node[190].veinsmobility  co2emission  ETV
vector 1342  Scenario2.node[191].veinsmobility  acceleration  ETV
vector 1343  Scenario2.node[191].veinsmobility  co2emission  ETV
vector 1348  Scenario2.node[192].veinsmobility  speed  ETV
vector 1355  Scenario2.node[193].veinsmobility  speed  ETV
vector 1362  Scenario2.node[194].veinsmobility  speed  ETV
vector 1395  Scenario2.node[199].veinsmobility  posx  ETV
vector 1396  Scenario2.node[199].veinsmobility  posy  ETV
vector 1402  Scenario2.node[200].veinsmobility  posx  ETV
vector 1403  Scenario2.node[200].veinsmobility  posy  ETV
vector 1409  Scenario2.node[201].veinsmobility  posx  ETV
vector 1410  Scenario2.node[201].veinsmobility  posy  ETV
vector 1416  Scenario2.node[202].veinsmobility  posx  ETV
vector 1417  Scenario2.node[202].veinsmobility  posy  ETV
vector 1423  Scenario2.node[203].veinsmobility  posx  ETV
vector 1424  Scenario2.node[203].veinsmobility  posy  ETV
vector 1430  Scenario2.node[204].veinsmobility  posx  ETV
vector 1431  Scenario2.node[204].veinsmobility  posy  ETV
vector 1437  Scenario2.node[205].veinsmobility  posx  ETV
vector 1438  Scenario2.node[205].veinsmobility  posy  ETV
vector 1444  Scenario2.node[206].veinsmobility  posx  ETV
vector 1445  Scenario2.node[206].veinsmobility  posy  ETV
vector 1349  Scenario2.node[192].veinsmobility  acceleration  ETV
vector 1350  Scenario2.node[192].veinsmobility  co2emission  ETV
vector 1356  Scenario2.node[193].veinsmobility  acceleration  ETV
vector 1357  Scenario2.node[193].veinsmobility  co2emission  ETV
vector 1363  Scenario2.node[194].veinsmobility  acceleration  ETV
vector 1364  Scenario2.node[194].veinsmobility  co2emission  ETV
vector 1369  Scenario2.node[195].veinsmobility  speed  ETV
vector 1376  Scenario2.node[196].veinsmobility  speed  ETV
vector 1383  Scenario2.node[197].veinsmobility  speed  ETV
vector 1390  Scenario2.node[198].veinsmobility  speed  ETV
vector 1451  Scenario2.node[207].veinsmobility  posx  ETV
vector 1452  Scenario2.node[207].veinsmobility  posy  ETV
vector 1458  Scenario2.node[208].veinsmobility  posx  ETV
vector 1459  Scenario2.node[208].veinsmobility  posy  ETV
vector 1465  Scenario2.node[209].veinsmobility  posx  ETV
vector 1466  Scenario2.node[209].veinsmobility  posy  ETV
vector 1472  Scenario2.node[210].veinsmobility  posx  ETV
vector 1473  Scenario2.node[210].veinsmobility  posy  ETV
vector 1479  Scenario2.node[211].veinsmobility  posx  ETV
vector 1480  Scenario2.node[211].veinsmobility  posy  ETV
vector 1370  Scenario2.node[195].veinsmobility  acceleration  ETV
vector 1371  Scenario2.node[195].veinsmobility  co2emission  ETV
vector 1377  Scenario2.node[196].veinsmobility  acceleration  ETV
vector 1378  Scenario2.node[196].veinsmobility  co2emission  ETV
vector 1384  Scenario2.node[197].veinsmobility  acceleration  ETV
vector 1385  Scenario2.node[197].veinsmobility  co2emission  ETV
vector 1391  Scenario2.node[198].veinsmobility  acceleration  ETV
vector 1392  Scenario2.node[198].veinsmobility  co2emission  ETV
vector 1397  Scenario2.node[199].veinsmobility  speed  ETV
vector 1404  Scenario2.node[200].veinsmobility  speed  ETV
vector 1411  Scenario2.node[201].veinsmobility  speed  ETV
vector 1418  Scenario2.node[202].veinsmobility  speed  ETV
vector 1425  Scenario2.node[203].veinsmobility  speed  ETV
vector 1432  Scenario2.node[204].veinsmobility  speed  ETV
vector 1439  Scenario2.node[205].veinsmobility  speed  ETV
vector 1446  Scenario2.node[206].veinsmobility  speed  ETV
vector 1486  Scenario2.node[212].veinsmobility  posx  ETV
vector 1487  Scenario2.node[212].veinsmobility  posy  ETV
vector 1398  Scenario2.node[199].veinsmobility  acceleration  ETV
vector 1399  Scenario2.node[199].veinsmobility  co2emission  ETV
vector 1405  Scenario2.node[200].veinsmobility  acceleration  ETV
vector 1406  Scenario2.node[200].veinsmobility  co2emission  ETV
vector 1412  Scenario2.node[201].veinsmobility  acceleration  ETV
vector 1413  Scenario2.node[201].veinsmobility  co2emission  ETV
vector 1419  Scenario2.node[202].veinsmobility  acceleration  ETV
vector 1420  Scenario2.node[202].veinsmobility  co2emission  ETV
vector 1426  Scenario2.node[203].veinsmobility  acceleration  ETV
vector 1427  Scenario2.node[203].veinsmobility  co2emission  ETV
vector 1433  Scenario2.node[204].veinsmobility  acceleration  ETV
vector 1434  Scenario2.node[204].veinsmobility  co2emission  ETV
vector 1440  Scenario2.node[205].veinsmobility  acceleration  ETV
vector 1441  Scenario2.node[205].veinsmobility  co2emission  ETV
vector 1447  Scenario2.node[206].veinsmobility  acceleration  ETV
vector 1448  Scenario2.node[206].veinsmobility  co2emission  ETV
vector 1453  Scenario2.node[207].veinsmobility  speed  ETV
vector 1460  Scenario2.node[208].veinsmobility  speed  ETV
vector 1467  Scenario2.node[209].veinsmobility  speed  ETV
vector 1474  Scenario2.node[210].veinsmobility  speed  ETV
vector 1481  Scenario2.node[211].veinsmobility  speed  ETV
vector 1493  Scenario2.node[213].veinsmobility  posx  ETV
vector 1494  Scenario2.node[213].veinsmobility  posy  ETV
vector 1500  Scenario2.node[214].veinsmobility  posx  ETV
vector 1501  Scenario2.node[214].veinsmobility  posy  ETV
vector 1507  Scenario2.node[215].veinsmobility  posx  ETV
vector 1508  Scenario2.node[215].veinsmobility  posy  ETV
vector 1454  Scenario2.node[207].veinsmobility  acceleration  ETV
vector 1455  Scenario2.node[207].veinsmobility  co2emission  ETV
vector 1461  Scenario2.node[208].veinsmobility  acceleration  ETV
vector 1462  Scenario2.node[208].veinsmobility  co2emission  ETV
vector 1468  Scenario2.node[209].veinsmobility  acceleration  ETV
vector 1469  Scenario2.node[209].veinsmobility  co2emission  ETV
vector 1475  Scenario2.node[210].veinsmobility  acceleration  ETV
vector 1476  Scenario2.node[210].veinsmobility  co2emission  ETV
vector 1482  Scenario2.node[211].veinsmobility  acceleration  ETV
vector 1483  Scenario2.node[211].veinsmobility  co2emission  ETV
vector 1488  Scenario2.node[212].veinsmobility  speed  ETV
vector 1514  Scenario2.node[216].veinsmobility  posx  ETV
vector 1515  Scenario2.node[216].veinsmobility  posy  ETV
vector 1521  Scenario2.node[217].veinsmobility  posx  ETV
vector 1522  Scenario2.node[217].veinsmobility  posy  ETV
vector 1489  Scenario2.node[212].veinsmobility  acceleration  ETV
vector 1490  Scenario2.node[212].veinsmobility  co2emission  ETV
vector 1495  Scenario2.node[213].veinsmobility  speed  ETV
vector 1502  Scenario2.node[214].veinsmobility  speed  ETV
vector 1509  Scenario2.node[215].veinsmobility  speed  ETV
vector 1528  Scenario2.node[218].veinsmobility  posx  ETV
vector 1529  Scenario2.node[218].veinsmobility  posy  ETV
vector 1496  Scenario2.node[213].veinsmobility  acceleration  ETV
vector 1497  Scenario2.node[213].veinsmobility  co2emission  ETV
vector 1503  Scenario2.node[214].veinsmobility  acceleration  ETV
vector 1504  Scenario2.node[214].veinsmobility  co2emission  ETV
vector 1510  Scenario2.node[215].veinsmobility  acceleration  ETV
vector 1511  Scenario2.node[215].veinsmobility  co2emission  ETV
vector 1516  Scenario2.node[216].veinsmobility  speed  ETV
vector 1523  Scenario2.node[217].veinsmobility  speed  ETV
132	67830 936 36236 4218326 3 33 31 2.2939761026998 10.611316769128 121.58310432878 651.412525883
131	68766 992 36236 4218326 3 33 31 -0.076625494612379 1.9882752746646 16.255356606602 30.454294201237
130	69758 963 11385 4218326 2 33 32 2.6377290236039 18.998816868074 528.16168835194 9425.7267541393
129	70721 987 2 4218326 1 33 33 489.37302299786 990.35963494294 23104.42913812 17053167.859066
128	71708 711 2 4218326 1 33 33 516.75 523.35 17241.087834322 9007843.4138137
vector 1535  Scenario2.node[219].veinsmobility  posx  ETV
vector 1536  Scenario2.node[219].veinsmobility  posy  ETV
vector 1542  Scenario2.node[220].veinsmobility  posx  ETV
vector 1543  Scenario2.node[220].veinsmobility  posy  ETV
vector 1517  Scenario2.node[216].veinsmobility  acceleration  ETV
vector 1518  Scenario2.node[216].veinsmobility  co2emission  ETV
vector 1524  Scenario2.node[217].veinsmobility  acceleration  ETV
vector 1525  Scenario2.node[217].veinsmobility  co2emission  ETV
vector 1530  Scenario2.node[218].veinsmobility  speed  ETV
510	72972 911 104039 4451433 5 34 30 2.2490704447112 11.273591646931 118.9178712817 651.52474663897
509	73883 964 104039 4451433 5 34 30 -0.087316996220036 2.1615680599981 14.802299616725 28.265957762028
508	74847 938 67310 4451433 4 34 31 4.160416336859 18.998247401568 523.67015305467 9380.1379477492
507	75785 735 36236 4451433 3 34 32 489.73864672193 523.35 16598.157140703 8612842.0615232
506	76520 922 36236 4451433 3 34 32 47.735398784356 513.45 10455.837987836 4189337.5751516
vector 1549  Scenario2.node[221].veinsmobility  posx  ETV
vector 1550  Scenario2.node[221].veinsmobility  posy  ETV
vector 1531  Scenario2.node[218].veinsmobility  acceleration  ETV
vector 1532  Scenario2.node[218].veinsmobility  co2emission  ETV
vector 1537  Scenario2.node[219].veinsmobility  speed  ETV
vector 1544  Scenario2.node[220].veinsmobility  speed  ETV
139	77807 997 36236 4685996 3 35 33 2.3107264046139 9.6704313836528 125.79905284345 600.73808992195
138	78804 1046 36236 4685996 3 35 33 -0.07201406288965 2.0794576383522 16.23398004626 26.881353851119
137	79850 1025 11385 4685996 2 35 34 2.7469869994252 18.980967045685 559.29716991546 9883.4065543873
136	80875 1050 2 4685996 1 35 35 473.91505634131 1005.4634754785 24449.019989498 18113004.76937
135	81925 755 2 4685996 1 35 35 516.75 523.35 18283.875921749 9551552.6174407
573	82680 913 145813 4685996 6 35 30 2.2398763388351 12.224396043371 119.23000791163 670.14717718959
572	83593 974 145813 4685996 6 35 30 -0.08830820240313 2.1332784559648 15.988709324027 31.355338969089
571	84567 941 104039 4685996 5 35 31 2.9169091988617 18.976269957249 512.92545506498 9151.826986769
570	85508 967 67310 4685996 4 35 32 513.80113151908 999.61561137021 22988.405326693 17315801.036012
569	86475 728 67310 4685996 4 35 32 516.76627088818 520.05 16629.089154095 8641488.4286869
vector 1556  Scenario2.node[222].veinsmobility  posx  ETV
vector 1557  Scenario2.node[222].veinsmobility  posy  ETV
vector 1563  Scenario2.node[223].veinsmobility  posx  ETV
vector 1564  Scenario2.node[223].veinsmobility  posy  ETV
vector 1538  Scenario2.node[219].veinsmobility  acceleration  ETV
vector 1539  Scenario2.node[219].veinsmobility  co2emission  ETV
vector 1545  Scenario2.node[220].veinsmobility  acceleration  ETV
vector 1546  Scenario2.node[220].veinsmobility  co2emission  ETV
vector 1551  Scenario2.node[221].veinsmobility  speed  ETV
237	87756 1018 36236 4920115 3 36 34 0.973 10.808088208676 128.19238520245 682.53054977878
236	88774 1093 36236 4920115 3 36 34 -0.43889260588949 2.1995541136665 18.196268348232 36.290555141302
235	89867 1059 11385 4920115 2 36 35 0.7030855698499 18.994416443501 549.28903773106 9760.100100436
234	90926 1080 2 4920115 1 36 36 478.50692365784 1000.043695413 24765.806598861 18096491.735821
233	92006 768 2 4920115 1 36 36 513.45 523.35 18782.169998515 9799499.4663526
174	92774 1008 36236 4920115 3 36 34 0.973 10.029046589042 125.60350843403 626.08617030852
173	93782 1080 36236 4920115 3 36 34 -1.5480872469249 2.128872625106 16.122873374621 33.417358912058
172	94862 1056 11385 4920115 2 36 35 2.8351305318164 18.986858689971 527.56754137944 9127.0365865122
171	95918 1079 2 4920115 1 36 36 495.32224281049 995.83644437273 24892.500043984 18176737.447365
170	96997 777 2 4920115 1 36 36 516.75 520.05 18694.814420729 9708290.0134894
vector 1570  Scenario2.node[224].veinsmobility  posx  ETV
vector 1571  Scenario2.node[224].veinsmobility  posy  ETV
vector 1552  Scenario2.node[221].veinsmobility  acceleration  ETV
vector 1553  Scenario2.node[221].veinsmobility  co2emission  ETV
vector 1558  Scenario2.node[222].veinsmobility  speed  ETV
vector 1565  Scenario2.node[223].veinsmobility  speed  ETV
272	98139 1054 36236 5154758 3 37 35 2.0235493079644 10.14627249707 127.13910885386 594.12231068628
271	99193 1118 36236 5154758 3 37 35 -0.060206022012867 2.0701263908274 15.048863019361 22.393521582911
270	100311 1089 11385 5154758 2 37 36 3.8436146157379 18.956129539851 577.64324968087 10034.248900425
269	101400 1111 2 5154758 1 37 37 445.26465031937 996.23022203297 24978.768660961 18026741.434189
268	102511 790 2 5154758 1 37 37 513.45 523.35 19308.25973435 10076189.065079
545	103301 1005 104039 5154758 5 37 33 1.2134668584891 11.207461324815 125.29924590028 683.09929147648
544	104306 1067 104039 5154758 5 37 33 -0.12723060226207 2.2731350618857 16.428806144658 32.101880056691
543	105373 1030 67310 5154758 4 37 34 2.469303570089 18.989598316788 544.82144622628 9647.5245264172
542	106403 837 36236 5154758 3 37 35 459.46415430006 523.35 17852.819818128 9124695.0426993
541	107240 970 36236 5154758 3 37 35 58.173537966798 513.45 12266.003058261 5135121.8925068
552	108210 1003 104039 5154758 5 37 33 1.5742295575504 10.155744886331 122.34261446111 583.36748634341
551	109213 1049 104039 5154758 5 37 33 -0.13170775036702 1.9890212542447 17.240283011969 25.956281629047
550	110262 1030 67310 5154758 4 37 34 1.6589710813337 18.915644339598 519.14674442824 8989.048294226
549	111292 1060 36236 5154758 3 37 35 500.43849467808 992.09858819622 24332.355074687 17824816.05558
548	112352 765 36236 5154758 3 37 35 513.45 520.05 18170.84327417 9433816.268372
vector 1577  Scenario2.node[225].veinsmobility  posx  ETV
vector 1578  Scenario2.node[225].veinsmobility  posy  ETV
vector 1584  Scenario2.node[226].veinsmobility  posx  ETV
vector 1585  Scenario2.node[226].veinsmobility  posy  ETV
vector 1591  Scenario2.node[227].veinsmobility  posx  ETV
vector 1592  Scenario2.node[227].veinsmobility  posy  ETV
vector 1559  Scenario2.node[222].veinsmobility  acceleration  ETV
vector 1560  Scenario2.node[222].veinsmobility  co2emission  ETV
vector 1566  Scenario2.node[223].veinsmobility  acceleration  ETV
vector 1567  Scenario2.node[223].veinsmobility  co2emission  ETV
vector 1572  Scenario2.node[224].veinsmobility  speed  ETV
167	113786 1070 36236 5387901 3 38 36 0.973 10.09683843159 129.27981560609 628.5233715699
166	114856 1146 36236 5387901 3 38 36 -1.5831672838246 2.032142864871 15.038989900942 30.604360185406
165	116002 1119 11385 5387901 2 38 37 3.9197721995389 18.958762100481 560.46306829568 9614.2381020517
164	117121 917 2 5387901 1 38 38 438.5913538713 523.35 19132.25121458 9668146.8957861
163	118038 1026 2 5387901 1 38 38 61.993403198165 513.45 13867.711871774 5951722.2809324
699	119064 916 322475 5387901 9 38 30 2.4010205212608 10.528277928627 118.34030555927 618.8220000453
698	119980 963 322475 5387901 9 38 30 -0.048106064041864 2.24128123509 15.522830434407 28.233387938431
697	120943 946 253924 5387901 8 38 31 3.4495017279335 18.97233216234 511.96808475842 9049.6037388541
696	121889 975 194780 5387901 7 38 32 503.32550355904 988.3598504682 22686.241653939 16873527.639648
695	122864 708 194780 5387901 7 38 32 513.45 520.05 16618.12148471 8630162.3749537
vector 1573  Scenario2.node[224].veinsmobility  acceleration  ETV
vector 1574  Scenario2.node[224].veinsmobility  co2emission  ETV
vector 1579  Scenario2.node[225].veinsmobility  speed  ETV
vector 1586  Scenario2.node[226].veinsmobility  speed  ETV
vector 1593  Scenario2.node[227].veinsmobility  speed  ETV
307	123880 1079 36236 5621713 3 39 37 0.973 11.762685123926 131.64580719256 682.03719060877
306	124959 1185 36236 5621713 3 39 37 -2.5414641042698 2.2859905410187 15.172769804636 47.356478949374
305	126144 1151 11385 5621713 2 39 38 0.93985029414634 18.998235099297 539.67570761088 9299.9995052251
304	127295 1170 2 5621713 1 39 39 478.13553341236 990.87894008004 26104.703301046 18563696.846338
303	128465 843 2 5621713 1 39 39 516.75 523.35 20337.178677904 10605468.550002
685	129308 978 253924 5621713 8 39 32 2.1548821645973 10.64447818141 124.01651426989 674.46062636608
684	130286 1043 253924 5621713 8 39 32 -0.10699924176559 2.1241774047189 16.792811666555 32.010125009266
683	131329 1006 194780 5621713 7 39 33 2.0811592944059 18.985642932095 539.30680759635 9623.1000545223
682	132335 814 145813 5621713 6 39 34 481.15858410225 526.65 17628.028446683 9148118.6341223
681	133149 974 145813 5621713 6 39 34 513.45 991.89594931792 23807.619845313 17529447.5676
vector 1598  Scenario2.node[228].veinsmobility  posx  ETV
vector 1599  Scenario2.node[228].veinsmobility  posy  ETV
vector 1605  Scenario2.node[229].veinsmobility  posx  ETV
vector 1606  Scenario2.node[229].veinsmobility  posy  ETV
vector 1612  Scenario2.node[230].veinsmobility  posx  ETV
vector 1613  Scenario2.node[230].veinsmobility  posy  ETV
vector 1580  Scenario2.node[225].veinsmobility  acceleration  ETV
vector 1581  Scenario2.node[225].veinsmobility  co2emission  ETV
vector 1587  Scenario2.node[226].veinsmobility  acceleration  ETV
vector 1588  Scenario2.node[226].veinsmobility  co2emission  ETV
vector 1594  Scenario2.node[227].veinsmobility  acceleration  ETV
vector 1595  Scenario2.node[227].veinsmobility  co2emission  ETV
615	134864 1028 194780 5853051 7 40 34 0.973 11.730146060642 127.08622532585 685.47312280459
614	135892 1097 194780 5853051 7 40 34 -1.2994082433326 2.3706974765414 16.288723867261 35.934338267642
613	136989 1068 145813 5853051 6 40 35 1.5977305046032 18.996921987447 539.93566274713 9564.2191936176
612	138057 1095 104039 5853051 5 40 36 489.61711778462 1001.9758815669 24923.857985965 18280175.320425
611	139152 793 104039 5853051 5 40 36 513.45 520.05 18685.326907784 9698498.332547
461	139945 1093 67310 5853051 4 40 37 0.973 10.38483031005 129.04066945565 601.83226873629
460	141038 1180 67310 5853051 4 40 37 -1.0796132272697 1.9225806384071 15.778547594127 30.532381920347
459	142218 1149 36236 5853051 3 40 38 2.7004654792201 18.952788990605 546.77611218125 9259.679932627
458	143367 1174 11385 5853051 2 40 39 466.98145321813 987.06624594767 25929.6537866 18351703.841265
457	144541 841 11385 5853051 2 40 39 513.45 523.35 20339.790522442 10608215.764311
608	145382 1035 194780 5853051 7 40 34 2.1960229048744 10.03587497245 128.79870530879 622.05459684063
607	146417 1101 194780 5853051 7 40 34 -0.098007935110264 2.1434570627753 16.111767655784 27.566321194315
606	147518 1065 145813 5853051 6 40 35 2.8531540664863 18.998548358157 582.03467171388 10347.954982251
605	148583 872 104039 5853051 5 40 36 433.89056052003 526.65 18262.589993112 9304227.8115084
604	149455 1005 104039 5853051 5 40 36 513.45 987.9944453427 24755.352756385 17927983.745437
vector 1600  Scenario2.node[228].veinsmobility  speed  ETV
vector 1607  Scenario2.node[229].veinsmobility  speed  ETV
vector 1614  Scenario2.node[230].veinsmobility  speed  ETV
489	150637 1134 67310 6086137 4 41 38 0.973 9.8244937029119 133.33762905362 617.0496869046
488	151771 1218 67310 6086137 4 41 38 -1.7089363969069 2.1873156750563 16.758229185439 34.086316916629
487	152989 1180 36236 6086137 3 41 39 1.8372399861668 18.994541057395 563.73313035576 9641.6770847036
486	154169 1206 11385 6086137 2 41 40 462.27490013218 998.19503827169 26620.778340771 18941743.622622
485	155375 872 11385 6086137 2 41 40 513.45 520.05 20751.865486908 10766142.316794
vector 1619  Scenario2.node[231].veinsmobility  posx  ETV
vector 1620  Scenario2.node[231].veinsmobility  posy  ETV
[...]
1794	1437608 95 9784561 10476059 57 60 4 516.75 516.75 2067 1068122.25
1805	1437703 66 10245267 10476059 59 60 2 3.6094779695577 5.1344235134367 8.7439014829944 39.390636028054
1804	1437769 66 10245267 10476059 59 60 2 1.8010333541501 2.0856046769535 3.8866380311036 7.5934680112916
1803	1437835 99 10015123 10476059 58 60 3 3.3552391269021 7.2418771580058 15.75338876596 90.289560269197
1802	1437934 131 9784561 10476059 57 60 4 27.972847543286 34.781546234654 121.13010764333 3699.0506384331
1801	1438065 95 9784561 10476059 57 60 4 513.45 513.45 2053.8 1054523.61
1817	1438160 33 10476059 10476059 60 60 1 3.9308931913638 3.9308931913638 3.9308931913638 15.45192128191
1816	1438193 66 10245267 10476059 59 60 2 28.464278930124 28.464278930124 56.928557860248 1620.4303500238
1815	1438259 48 10245267 10476059 59 60 2 516.75 516.75 1033.5 534061.125
1539	1438307 640 4920115 10476059 36 60 25 0.973 10.258723799424 67.048145121273 378.5117236281
1538	1438947 828 4920115 10476059 36 60 25 -1.78886681656 2.1002793148183 1.3258127316906 42.162758550259
1537	1439775 832 4685996 10476059 35 60 26 2.5433694126463 16.550551838007 215.03799085351 2235.9470355925
1536	1440607 865 4451433 10476059 34 60 27 27.673846837027 238.01719332843 3745.668042002 671841.50084585
1535	1441472 624 4451433 10476059 34 60 27 516.75 520.05 14024.85 7285096.8675
1824	1442096 33 10476059 10476059 60 60 1 3.9106995907333 3.9106995907333 3.9106995907333 15.293571288961
1823	1442129 66 10245267 10476059 59 60 2 28.290708701727 28.290708701727 56.581417403454 1600.728397692
1822	1442195 48 10245267 10476059 59 60 2 513.45 513.45 1026.9 527261.805
1830	1442243 22 10476059 10476059 60 60 1 27.6 27.6 27.6 761.76
1829	1442265 24 10476059 10476059 60 60 1 513.45 513.45 513.45 263630.9025
1546	1442289 639 4920115 10476059 36 60 25 0.973 8.08153278131 58.929243245341 272.85078648635
1545	1442928 830 4920115 10476059 36 60 25 -1.4783479332167 2.01114255097 1.4425738966781 32.94782494084
1544	1443758 833 4685996 10476059 35 60 26 2.5352493333786 14.955510374656 194.95302744973 1775.5660576059
1543	1444591 861 4451433 10476059 34 60 27 27.62483737518 217.35211323521 3445.082705055 559198.12751103
1542	1445452 624 4451433 10476059 34 60 27 513.45 516.75 13932.45 7189427.2275
1560	1446076 579 5387901 10476059 38 60 23 0.973 9.4583746124162 56.075667957616 293.30280826986
1559	1446655 767 5387901 10476059 38 60 23 -1.2393471887612 2.1651902665314 1.1502372081411 33.970909593374
1558	1447422 770 5154758 10476059 37 60 24 2.9288811780718 14.987727418457 187.44713281908 1745.6496269356
1557	1448192 802 4920115 10476059 36 60 25 27.748437279064 209.43205533284 3062.3493425621 476602.79522136
1556	1448994 578 4920115 10476059 36 60 25 516.75 516.75 12918.75 6675764.0625
1567	1449572 598 5387901 10476059 38 60 23 0.973 10.500017583418 68.208297127556 414.42827180307
1566	1450170 757 5387901 10476059 38 60 23 -1.9273027454425 1.9809074431681 1.2552003483259 44.280477074874
1565	1450927 768 5154758 10476059 37 60 24 2.7870496245492 17.35585873596 208.59450665239 2211.8235774008
1564	1451695 799 4920115 10476059 36 60 25 27.676207676268 229.92454708159 3193.8489034458 540842.18982126
1563	1452494 578 4920115 10476059 36 60 25 513.45 520.05 12951.75 6710130.9225
1581	1453072 544 5853051 10476059 40 60 21 0.973 8.6899264417535 57.079009025235 300.98594643235
1580	1453616 699 5853051 10476059 40 60 21 -1.5151500927685 2.1503405884933 1.5291794540032 34.912245689972
1579	1454315 705 5621713 10476059 39 60 22 2.9221501927715 14.821269217066 199.02085549756 2111.3585090331
1578	1455020 734 5387901 10476059 38 60 23 27.84816253734 221.21217103112 2818.7635907539 454895.57049448
1577	1455754 532 5387901 10476059 38 60 23 516.75 520.05 11928.15 6186181.6575
1588	1456286 554 5853051 10476059 40 60 21 0.973 7.879920103034 53.738701446317 247.39858820866
1587	1456840 694 5853051 10476059 40 60 21 -1.6015497487492 2.1940605006902 1.5444184375371 32.149420675391
1586	1457534 706 5621713 10476059 39 60 22 2.8166111444455 14.465104977946 179.3592105805 1700.7368803359
1585	1458240 739 5387901 10476059 38 60 23 27.753283537091 201.00376615936 2565.8125869518 373546.3385363
1584	1458979 532 5387901 10476059 38 60 23 513.45 516.75 11862.15 6117905.3175
1609	1459511 491 6315507 10476059 42 60 19 0.973 9.8758082151876 58.934017010003 358.64128874709
1608	1460002 625 6315507 10476059 42 60 19 -1.4892684867242 2.1211033299705 1.6727448707604 37.462833284121
1607	1460627 641 6086137 10476059 41 60 20 3.366382288223 16.535731052186 190.38703481816 2096.8874268321
1606	1461268 673 5853051 10476059 40 60 21 27.967430395988 211.49768900552 2416.0447607837 367732.92914536
1605	1461941 486 5853051 10476059 40 60 21 516.75 520.05 10901.25 5658963.4125
748	1462427 1482 322475 10476059 9 60 52 0.973 11.446003369947 205.61010314064 1282.9412327222
747	1463909 1654 322475 10476059 9 60 52 -3.8675052254763 2.1078559235763 16.081761781731 133.23289614303
746	1465563 1626 253924 10476059 8 60 53 1.3665936050955 18.978533342979 653.42484262804 10039.51845723
745	1467189 1178 194780 10476059 7 60 54 516.75 523.35 28095.9 14618224.575
744	1468367 1655 194780 10476059 7 60 54 396.52847003522 1022.2503909567 39455.038340736 31006443.740245
804	1470022 1447 395028 10476059 10 60 51 0.973 11.874607429786 189.77957426279 1133.4759948664
803	1471469 1620 395028 10476059 10 60 51 -2.4499232430192 2.1701410812442 16.587023803063 95.780525766775
802	1473089 1600 322475 10476059 9 60 52 2.2987332774962 18.998721546051 635.75070104145 9532.609260981
801	1474689 1158 253924 10476059 8 60 53 516.75 520.05 27542.85 14313427.4925
800	1475847 1628 253924 10476059 8 60 53 413.51724750452 1022.375063128 39189.718506913 31040201.709977
1322	1477475 1093 2527165 10476059 26 60 35 0.95726297214289 11.590534283809 137.20910784582 802.03824340979
1321	1478568 1173 2527165 10476059 26 60 35 -1.8963369137169 2.1561036602571 16.060391436608 40.254842289316
1320	1479741 1153 2337751 10476059 25 60 36 2.6833976408355 18.998830522234 574.91560861564 9809.4927445785
1319	1480894 854 2154164 10476059 24 60 37 516.75 520.05 19123.05 9883552.2525
1318	1481748 1183 2154164 10476059 24 60 37 472.69902204723 1022.3244173439 28741.837937619 23539194.292836
1364	1482931 1037 2923548 10476059 28 60 33 0.973 11.933229146735 130.81338369002 730.24125290159
1363	1483968 1112 2923548 10476059 28 60 33 -0.97029771668246 2.0637470759009 15.739536351891 33.332556360259
1362	1485080 1090 2721473 10476059 27 60 34 3.1413040239445 18.994278208832 567.17843938036 10084.660030659
1361	1486170 808 2527165 10476059 26 60 35 516.75 523.35 18112.65 9373484.7675
1360	1486978 1118 2527165 10476059 26 60 35 481.81491185775 1022.1578753505 27597.266889427 22831217.137417
1448	1488096 989 3364851 10476059 30 60 31 2.1749266183763 10.540226498138 121.61566410606 668.99746185626
1447	1489085 1053 3364851 10476059 30 60 31 -0.10253857912263 2.1918447264074 15.250608700478 29.509730054225
1446	1490138 1025 3139348 10476059 29 60 32 3.6782331388891 18.989775945812 537.93159884613 9630.3716111286
1445	1491163 762 2923548 10476059 28 60 33 516.75 516.75 17052.75 8812008.5625
1444	1491925 1056 2923548 10476059 28 60 33 510.17380480281 1021.7198698165 26477.126661114 22147450.249546
1490	1492981 930 3985652 10476059 32 60 29 2.1965038832019 11.205452161493 116.01046438218 642.09182223622
1489	1493911 978 3985652 10476059 32 60 29 -0.098008019744885 2.047781994727 14.780989863515 28.152115844104
1488	1494889 956 3590985 10476059 31 60 30 4.1376065025868 18.986238372254 504.10665556023 9005.609035195
1487	1495845 716 3364851 10476059 30 60 31 516.75 516.75 16019.25 8277947.4375
1486	1496561 992 3364851 10476059 30 60 31 543.52764296616 1021.3255330183 25322.792850602 21428276.613478
1511	1497553 894 4218326 10476059 33 60 28 2.150960623161 11.831118373176 114.33272398252 676.11218147765
1510	1498447 950 4218326 10476059 33 60 28 -0.10784303542227 2.2251682388806 16.37851903166 33.642621390264
1509	1499397 928 3985652 10476059 32 60 29 2.4961707134907 18.98573463216 473.97904189255 8433.1026162131
1508	1500325 693 3590985 10476059 31 60 30 516.75 516.75 15502.5 8010916.875
1507	1501018 960 3590985 10476059 31 60 30 575.74080794816 1022.3752741404 25113.517134307 21664867.523146
1532	1501978 831 4685996 10476059 35 60 26 2.2828246723191 11.226146412545 108.38765476679 611.98653714716
1531	1502809 880 4685996 10476059 35 60 26 -0.079327263718003 2.0158921741834 16.040757358891 29.328008337777
1530	1503689 862 4451433 10476059 34 60 27 2.925070704068 18.991786080897 434.72529918333 7646.0043953996
1529	1504551 647 4218326 10476059 33 60 28 516.75 516.75 14469 7476855.75
1528	1505198 895 4218326 10476059 33 60 28 614.60982816515 1022.2486267128 23950.736122121 20987323.204971
1553	1506093 766 5154758 10476059 37 60 24 2.2866173547668 11.278901448791 102.94613267637 616.42063753285
1552	1506859 814 5154758 10476059 37 60 24 -0.078114391893614 2.1395704695815 15.329535129576 29.829943144837
1551	1507673 800 4920115 10476059 36 60 25 3.5437541568625 18.954806977697 404.9715828318 7115.4470181792
1550	1508473 601 4685996 10476059 35 60 26 516.75 516.75 13435.5 6942794.625
1549	1509074 830 4685996 10476059 35 60 26 643.30285719035 1021.8880296252 22523.518954251 19912994.437405
1574	1509904 702 5621713 10476059 39 60 22 2.2656405570113 10.256033884573 98.157424909062 598.80316840594
1573	1510606 746 5621713 10476059 39 60 22 -0.083341767049859 2.0834685303201 15.387267245726 29.595166901594
1572	1511352 736 5387901 10476059 38 60 23 3.594305295324 18.992074166813 368.23073601813 6422.7889911901
1571	1512088 555 5154758 10476059 37 60 24 516.75 516.75 12402 6408733.5
1570	1512643 769 5154758 10476059 37 60 24 679.43141421115 1021.5448541871 21183.119194738 19000876.303245
1595	1513412 673 5853051 10476059 40 60 21 2.2821291041809 11.344678517706 95.313413517095 591.54801595396
1594	1514085 710 5853051 10476059 40 60 21 -0.080018880546557 2.0592208646098 16.659829633151 31.799337110959
1593	1514795 707 5621713 10476059 39 60 22 2.2471144736915 18.991526428331 335.98787165072 5781.9867226804
1592	1515502 532 5387901 10476059 38 60 23 516.75 516.75 11885.25 6141702.9375
1591	1516034 716 5387901 10476059 38 60 23 713.66343360285 1022.4 20767.470318012 18992725.092571
1616	1516750 611 6315507 10476059 42 60 19 2.0754026231315 12.549920469417 90.39922406747 599.30672585843
1615	1517361 632 6315507 10476059 42 60 19 -0.1244013808202 2.2196064928244 16.330118489914 32.279382383868
1614	1517993 642 6086137 10476059 41 60 20 2.6107251908781 18.995604908918 302.57472803908 5167.5972833258
1613	1518635 486 5853051 10476059 40 60 21 516.75 516.75 10851.75 5607641.8125
1612	1519121 674 5853051 10476059 40 60 21 746.81220784733 1022.3242947998 19253.959235478 17829004.876525
860	1519795 1430 557960 10476059 12 60 49 0.973 11.244629151072 189.89694015738 1031.3699407719
859	1521225 1572 557960 10476059 12 60 49 -3.3739231671606 2.0784372282261 15.147975604688 101.23618989742
858	1522797 1542 473628 10476059 11 60 50 1.8546200387633 18.994099869691 689.40929320353 11160.391892516
857	1524339 1118 395028 10476059 10 60 51 516.75 516.75 26354.25 13618558.6875
856	1525457 1575 395028 10476059 10 60 51 358.20405824894 1022.2515773688 35424.538480654 26812949.633712
1637	1527032 547 6776197 10476059 44 60 17 2.4222801667414 11.343608148486 85.080424557497 584.08728006104
1636	1527579 568 6776197 10476059 44 60 17 -0.049481071569026 2.1262613887806 16.040710956321 31.755642279625
1635	1528147 576 6547193 10476059 43 60 18 2.8951879479484 18.989421254774 267.63463812905 4518.3509699591
1634	1528723 440 6315507 10476059 42 60 19 516.75 516.75 9818.25 5073580.6875
1633	1529163 609 6315507 10476059 42 60 19 781.60236307263 1022.1493085545 17701.072044815 16612485.087907
1658	1529772 480 7235672 10476059 46 60 15 2.2539279143695 11.335828310773 79.433232575481 559.6211293483
1657	1530252 499 7235672 10476059 46 60 15 -0.086274689689745 2.1752234455175 15.461641571185 29.867721991448
1656	1530751 513 7006542 10476059 45 60 16 3.4998579367121 18.998051489168 233.33269861476 3862.9267164587
1655	1531264 394 6776197 10476059 44 60 17 516.75 516.75 8784.75 4539519.5625
1654	1531658 545 6776197 10476059 44 60 17 815.35263930517 1021.8851123808 16068.492125932 15267824.788731
1679	1532203 418 7698831 10476059 48 60 13 2.4200173349843 11.807861798998 73.863698258721 540.22709200331
1678	1532621 433 7698831 10476059 48 60 13 -0.050470640768761 2.1350490285247 14.914684964629 29.132807700847
1677	1533054 450 7467334 10476059 47 60 14 3.9904461752567 18.988626669745 201.36260798074 3284.2560573073
1676	1533504 348 7235672 10476059 46 60 15 516.75 516.75 7751.25 4005458.4375
1675	1533852 481 7235672 10476059 46 60 15 846.38571310463 1021.3528288952 14356.865022344 13791936.969753
1693	1534333 387 7931497 10476059 49 60 12 2.6491326077255 10.230346007163 72.044672749756 519.46135777669
1692	1534720 396 7931497 10476059 49 60 12 -0.0017331217415624 2.2338855806878 16.581253302491 31.735485825506
1691	1535116 418 7698831 10476059 48 60 13 2.3976434413203 18.980629865553 169.51635102915 2647.6929112799
1690	1535534 325 7467334 10476059 47 60 14 516.75 516.75 7234.5 3738427.875
1689	1535859 451 7467334 10476059 47 60 14 880.09335588592 1022.3747750018 13634.677799591 13309886.128627
1721	1536310 321 8396203 10476059 51 60 10 2.9839575096465 10.889041356388 66.291065741913 497.90472283922
1720	1536631 325 8396203 10476059 51 60 10 0.072569650360382 2.1486641389504 16.156655410136 30.333039842031
1719	1536956 355 8164726 10476059 50 60 11 2.7918314795114 18.948486889647 133.59921405681 1956.7445891456
1718	1537311 279 7931497 10476059 49 60 12 516.75 516.75 6201 3204366.75
1717	1537590 385 7931497 10476059 49 60 12 915.61427327725 1022.2538819367 11837.394865691 11691805.571375
1742	1537975 258 8858766 10476059 53 60 8 3.7803965413226 11.184994257997 59.826440558685 497.91822969134
1741	1538233 257 8858766 10476059 53 60 8 1.7629344591079 2.170851724497 15.559372319255 30.365861975424
1740	1538490 289 8628253 10476059 52 60 9 3.136106249324 18.69547856858 98.235748754654 1299.985096585
1739	1538779 233 8396203 10476059 51 60 10 516.75 516.75 5167.5 2670305.625
1738	1539012 322 8396203 10476059 51 60 10 949.44332225831 1022.0328363738 9975.011191531 9955973.0100283
1763	1539334 195 9321266 10476059 55 60 6 3.8908991714171 9.2800996419222 38.710387034317 267.92583552024
1762	1539529 195 9321266 10476059 55 60 6 1.7828494698065 2.0470379674924 11.594521373457 22.449657371992
1761	1539724 227 9090904 10476059 54 60 7 3.3749732255289 14.969494598986 64.512824265719 698.19039653203
1760	1539951 187 8858766 10476059 53 60 8 516.75 516.75 4134 2136244.5
1759	1540138 256 8858766 10476059 53 60 8 977.1350189684 1021.7215683318 8051.4298683307 8105085.7598808
1784	1540394 130 9784561 10476059 57 60 4 3.9804396367015 7.4114056380335 22.250403430648 130.71993807073
1783	1540524 131 9784561 10476059 57 60 4 1.7324796397961 2.0009395561856 7.4599573615077 13.9589717188
1782	1540655 163 9554138 10476059 56 60 5 4.1467374746261 11.606694836134 38.968966930198 338.29512088681
1781	1540818 141 9321266 10476059 55 60 6 516.75 516.75 3100.5 1602183.375
1780	1540959 193 9321266 10476059 55 60 6 997.411726537 1021.3588961148 6077.3929587066 6156240.2590887
1791	1541152 99 10015123 10476059 58 60 3 3.3908126831028 5.0865635546595 12.921392037435 57.120015875225
1790	1541251 99 10015123 10476059 58 60 3 1.8019543947582 1.9677703394811 5.7286632723827 10.956599945953
1789	1541350 131 9784561 10476059 57 60 4 2.4095380588329 8.1382013312156 21.252462923482 131.26780758246
1788	1541481 118 9554138 10476059 56 60 5 516.75 516.75 2583.75 1335152.8125
1787	1541599 163 9554138 10476059 56 60 5 1011.9371601174 1022.3750137407 5095.0247262829 5191934.0763338
1812	1541762 33 10476059 10476059 60 60 1 3.3820611870713 3.3820611870713 3.3820611870713 11.438337873094
1811	1541795 31 10476059 10476059 60 60 1 1.85032901183 1.85032901183 1.85032901183 3.4237174520199
1810	1541826 66 10245267 10476059 59 60 2 2.7294526099854 4.5797816218155 7.3092342318009 28.424311253675
1809	1541892 72 10015123 10476059 58 60 3 516.75 516.75 1550.25 801091.6875
1808	1541964 99 10015123 10476059 58 60 3 1020.3189431499 1022.2462720916 3064.811487333 3131025.6273607
916	1542063 1374 741830 10476059 14 60 47 0.973 11.043293456115 179.96048440599 987.70254815777
915	1543437 1508 741830 10476059 14 60 47 -2.8197946078483 2.124614767821 14.501641541167 84.354877312272
914	1544945 1483 647800 10476059 13 60 48 3.257133028099 18.999128500514 669.40704120802 10744.672432909
913	1546428 1076 557960 10476059 12 60 49 516.75 516.75 25320.75 13084497.5625
912	1547504 1513 557960 10476059 12 60 49 377.87208698682 1022.0420618017 34407.480250042 26188704.473264
1837	1549017 24 10476059 10476059 60 60 1 516.75 516.75 516.75 267030.5625
1836	1549041 33 10476059 10476059 60 60 1 1022.0305188808 1022.0305188808 1022.0305188808 1044546.3815238
958	1549074 1313 947510 10476059 16 60 45 0.973 10.880307915821 170.05792350486 921.75641778313
957	1550387 1448 947510 10476059 16 60 45 -2.4335439383462 2.2192572887358 13.684934333857 71.160354130153
956	1551835 1424 839794 10476059 15 60 46 3.4777492481221 18.986348388898 648.45816830335 10280.508327644
955	1553259 1034 741830 10476059 14 60 47 516.75 516.75 24287.25 12550436.4375
954	1554293 1451 741830 10476059 14 60 47 396.9019088342 1021.7144041437 33453.953312416 25677594.402509
1084	1555744 1296 1206750 10476059 18 60 43 0.973 9.9718702941619 160.43838939463 841.90050093054
1083	1557040 1436 1206750 10476059 18 60 43 -2.0962712595214 2.1040659326501 12.587122118903 58.814557254017
1082	1558476 1409 1073380 10476059 17 60 44 4.2176943966643 18.990893175832 629.0898395496 9921.3189538635
1081	1559885 1037 947510 10476059 16 60 45 516.75 516.75 23253.75 12016375.3125
1080	1560922 1439 947510 10476059 16 60 45 415.3974103139 1021.3438599509 32427.908786906 25070799.499165
1119	1562361 1265 1350432 10476059 19 60 42 0.973 11.985335610706 176.20026950234 1125.0910932445
1118	1563626 1395 1350432 10476059 19 60 42 -2.6043014780341 2.1224379388685 16.171985368918 84.232255143355
1117	1565021 1374 1206750 10476059 18 60 43 2.7087925310453 18.998727781165 618.42116182523 10041.572569233
1116	1566395 1015 1073380 10476059 17 60 44 516.75 523.35 22806.3 11821282.11
1115	1567410 1408 1073380 10476059 17 60 44 431.2417989337 1022.3236122951 32423.148654457 25507780.16051
1175	1568818 1211 1652844 10476059 21 60 40 0.973 10.295208033162 148.9181485535 789.92670666412
1174	1570029 1333 1652844 10476059 21 60 40 -2.2328182640172 2.1356146661914 13.04247353247 49.799919187492
1173	1571362 1310 1497145 10476059 20 60 41 3.3557482195866 18.999923923542 611.39336441778 9829.2355846933
1172	1572672 969 1350432 10476059 19 60 42 516.75 516.75 21703.5 11215283.625
1171	1573641 1343 1350432 10476059 19 60 42 433.73361650199 1022.0301223929 31054.147861837 24511200.325288
1231	1574984 1162 1977322 10476059 23 60 38 0.973 11.772803564808 140.10945338174 758.23450919301
1230	1576146 1266 1977322 10476059 23 60 38 -1.950153396324 2.1000327823032 12.407257909026 43.576640039976
1229	1577412 1248 1813749 10476059 22 60 39 3.5815561515633 18.991335381207 591.85036518488 9635.2447180331
1228	1578660 923 1652844 10476059 21 60 40 516.75 516.75 20670 10681222.5
1227	1579583 1279 1652844 10476059 21 60 40 452.12194713699 1021.5639853999 30162.443726022 24149802.738222
1245	1580862 1124 2154164 10476059 24 60 37 0.973 10.750113891002 156.81212229586 967.34979917985
1244	1581986 1237 2154164 10476059 24 60 37 -2.5299049058435 2.1147708464251 16.66725591483 55.577979670525
1243	1583223 1216 1977322 10476059 23 60 38 2.2529883940338 18.999875641265 598.3691295099 10160.597869701
1242	1584439 900 1813749 10476059 22 60 39 516.75 520.05 20196.15 10458670.6575
1241	1585339 1231 1813749 10476059 22 60 39 451.21284597073 1022.4 29840.165255153 24191358.293436
