version 2
run General-0-20171118-23:19:59-13549
attr configname General
attr datetime 20171118-23:19:59
attr experiment General
attr inifile omnetpp.ini
attr iterationvars ""
attr iterationvarsf ""
attr measurement ""
attr network RSUExampleScenario2
attr processid 13549
attr repetition 0
attr replication #0
attr resultdir results
attr runnumber 0
attr seedset 0
param **.coreDebug false
param **.debug false
param *.**.nic.mac1609_4.bitrate 6Mbps
param *.**.nic.mac1609_4.txPower 20mW
param *.**.nic.mac1609_4.useServiceChannel false
param *.**.nic.phy80211p.analogueModels "xmldoc(\"config.xml\")"
param *.**.nic.phy80211p.antenna "xmldoc(\"antenna.xml\", \"/root/Antenna[@id='monopole']\")"
param *.**.nic.phy80211p.decider "xmldoc(\"config.xml\")"
param *.**.nic.phy80211p.sensitivity -89dBm
param *.**.nic.phy80211p.thermalNoise -110dBm
param *.**.nic.phy80211p.usePropagationDelay true
param *.**.nic.phy80211p.useThermalNoise true
param *.annotations.draw true
param *.connectionManager.drawMaxIntfDist false
param *.connectionManager.maxInterfDist 2600m
param *.connectionManager.sendDirect true
param *.manager.autoShutdown true
param *.manager.host "\"localhost\""
param *.manager.launchConfig "xmldoc(\"cross.launchd.xml\")"
param *.manager.port 9999
param *.manager.updateInterval 1s
param *.node[*0].veinsmobility.accidentCount 1
param *.node[*0].veinsmobility.accidentDuration 50s
param *.node[*0].veinsmobility.accidentStart 75s
param *.node[*].appl.beaconInterval 1s
param *.node[*].appl.dataOnSch false
param *.node[*].appl.headerLength "80 bit"
param *.node[*].appl.sendBeacons true
param *.node[*].applType "\"TraCIDemo11p\""
param *.node[*].veinsmobility.x 0
param *.node[*].veinsmobility.y 0
param *.node[*].veinsmobility.z 1.895
param *.node[*].veinsmobilityType.debug true
param *.obstacles.debug false
param *.playgroundSizeX 2500m
param *.playgroundSizeY 2500m
param *.playgroundSizeZ 50m
param *.rsu[*].appl.beaconInterval 1s
param *.rsu[*].appl.beaconUserPriority 7
param *.rsu[*].appl.dataOnSch false
param *.rsu[*].appl.dataUserPriority 5
param *.rsu[*].appl.headerLength "80 bit"
param *.rsu[*].appl.sendBeacons true
param *.rsu[*].applType "\"TraCIDemoRSU11p\""
param *.rsu[0].mobility.x 500
param *.rsu[0].mobility.y 500
param *.rsu[0].mobility.z 3

vector 4  RSUExampleScenario2.node[0].veinsmobility  posx  ETV
vector 5  RSUExampleScenario2.node[0].veinsmobility  posy  ETV
vector 6  RSUExampleScenario2.node[0].veinsmobility  speed  ETV
vector 7  RSUExampleScenario2.node[0].veinsmobility  acceleration  ETV
vector 8  RSUExampleScenario2.node[0].veinsmobility  co2emission  ETV
vector 11  RSUExampleScenario2.node[1].veinsmobility  posx  ETV
vector 12  RSUExampleScenario2.node[1].veinsmobility  posy  ETV
vector 13  RSUExampleScenario2.node[1].veinsmobility  speed  ETV
vector 14  RSUExampleScenario2.node[1].veinsmobility  acceleration  ETV
vector 15  RSUExampleScenario2.node[1].veinsmobility  co2emission  ETV
vector 18  RSUExampleScenario2.node[2].veinsmobility  posx  ETV
vector 19  RSUExampleScenario2.node[2].veinsmobility  posy  ETV
vector 25  RSUExampleScenario2.node[3].veinsmobility  posx  ETV
vector 26  RSUExampleScenario2.node[3].veinsmobility  posy  ETV
vector 20  RSUExampleScenario2.node[2].veinsmobility  speed  ETV
vector 21  RSUExampleScenario2.node[2].veinsmobility  acceleration  ETV
vector 22  RSUExampleScenario2.node[2].veinsmobility  co2emission  ETV
vector 27  RSUExampleScenario2.node[3].veinsmobility  speed  ETV
vector 28  RSUExampleScenario2.node[3].veinsmobility  acceleration  ETV
vector 29  RSUExampleScenario2.node[3].veinsmobility  co2emission  ETV
vector 32  RSUExampleScenario2.node[4].veinsmobility  posx  ETV
vector 33  RSUExampleScenario2.node[4].veinsmobility  posy  ETV
vector 39  RSUExampleScenario2.node[5].veinsmobility  posx  ETV
vector 40  RSUExampleScenario2.node[5].veinsmobility  posy  ETV
vector 34  RSUExampleScenario2.node[4].veinsmobility  speed  ETV
vector 41  RSUExampleScenario2.node[5].veinsmobility  speed  ETV
vector 35  RSUExampleScenario2.node[4].veinsmobility  acceleration  ETV
vector 36  RSUExampleScenario2.node[4].veinsmobility  co2emission  ETV
vector 42  RSUExampleScenario2.node[5].veinsmobility  acceleration  ETV
vector 43  RSUExampleScenario2.node[5].veinsmobility  co2emission  ETV
vector 46  RSUExampleScenario2.node[6].veinsmobility  posx  ETV
vector 47  RSUExampleScenario2.node[6].veinsmobility  posy  ETV
vector 53  RSUExampleScenario2.node[7].veinsmobility  posx  ETV
vector 54  RSUExampleScenario2.node[7].veinsmobility  posy  ETV
vector 48  RSUExampleScenario2.node[6].veinsmobility  speed  ETV
vector 55  RSUExampleScenario2.node[7].veinsmobility  speed  ETV
vector 49  RSUExampleScenario2.node[6].veinsmobility  acceleration  ETV
vector 50  RSUExampleScenario2.node[6].veinsmobility  co2emission  ETV
vector 56  RSUExampleScenario2.node[7].veinsmobility  acceleration  ETV
vector 57  RSUExampleScenario2.node[7].veinsmobility  co2emission  ETV
vector 60  RSUExampleScenario2.node[8].veinsmobility  posx  ETV
vector 61  RSUExampleScenario2.node[8].veinsmobility  posy  ETV
vector 62  RSUExampleScenario2.node[8].veinsmobility  speed  ETV
vector 63  RSUExampleScenario2.node[8].veinsmobility  acceleration  ETV
vector 64  RSUExampleScenario2.node[8].veinsmobility  co2emission  ETV
vector 67  RSUExampleScenario2.node[9].veinsmobility  posx  ETV
vector 68  RSUExampleScenario2.node[9].veinsmobility  posy  ETV
vector 69  RSUExampleScenario2.node[9].veinsmobility  speed  ETV
vector 70  RSUExampleScenario2.node[9].veinsmobility  acceleration  ETV
vector 71  RSUExampleScenario2.node[9].veinsmobility  co2emission  ETV
vector 74  RSUExampleScenario2.node[10].veinsmobility  posx  ETV
vector 75  RSUExampleScenario2.node[10].veinsmobility  posy  ETV
vector 76  RSUExampleScenario2.node[10].veinsmobility  speed  ETV
vector 77  RSUExampleScenario2.node[10].veinsmobility  acceleration  ETV
vector 78  RSUExampleScenario2.node[10].veinsmobility  co2emission  ETV
vector 81  RSUExampleScenario2.node[11].veinsmobility  posx  ETV
vector 82  RSUExampleScenario2.node[11].veinsmobility  posy  ETV
vector 83  RSUExampleScenario2.node[11].veinsmobility  speed  ETV
vector 84  RSUExampleScenario2.node[11].veinsmobility  acceleration  ETV
vector 85  RSUExampleScenario2.node[11].veinsmobility  co2emission  ETV
vector 88  RSUExampleScenario2.node[12].veinsmobility  posx  ETV
vector 89  RSUExampleScenario2.node[12].veinsmobility  posy  ETV
vector 90  RSUExampleScenario2.node[12].veinsmobility  speed  ETV
vector 91  RSUExampleScenario2.node[12].veinsmobility  acceleration  ETV
vector 92  RSUExampleScenario2.node[12].veinsmobility  co2emission  ETV
vector 95  RSUExampleScenario2.node[13].veinsmobility  posx  ETV
vector 96  RSUExampleScenario2.node[13].veinsmobility  posy  ETV
vector 97  RSUExampleScenario2.node[13].veinsmobility  speed  ETV
vector 98  RSUExampleScenario2.node[13].veinsmobility  acceleration  ETV
vector 99  RSUExampleScenario2.node[13].veinsmobility  co2emission  ETV
vector 102  RSUExampleScenario2.node[14].veinsmobility  posx  ETV
vector 103  RSUExampleScenario2.node[14].veinsmobility  posy  ETV
vector 104  RSUExampleScenario2.node[14].veinsmobility  speed  ETV
vector 105  RSUExampleScenario2.node[14].veinsmobility  acceleration  ETV
vector 106  RSUExampleScenario2.node[14].veinsmobility  co2emission  ETV
vector 109  RSUExampleScenario2.node[15].veinsmobility  posx  ETV
vector 110  RSUExampleScenario2.node[15].veinsmobility  posy  ETV
vector 111  RSUExampleScenario2.node[15].veinsmobility  speed  ETV
vector 112  RSUExampleScenario2.node[15].veinsmobility  acceleration  ETV
vector 113  RSUExampleScenario2.node[15].veinsmobility  co2emission  ETV
vector 116  RSUExampleScenario2.node[16].veinsmobility  posx  ETV
vector 117  RSUExampleScenario2.node[16].veinsmobility  posy  ETV
vector 118  RSUExampleScenario2.node[16].veinsmobility  speed  ETV
vector 119  RSUExampleScenario2.node[16].veinsmobility  acceleration  ETV
vector 120  RSUExampleScenario2.node[16].veinsmobility  co2emission  ETV
vector 123  RSUExampleScenario2.node[17].veinsmobility  posx  ETV
vector 124  RSUExampleScenario2.node[17].veinsmobility  posy  ETV
22	474	11	1.4805825283849
22	584	12	1.5485980461789
22	694	13	1.6951406803521
22	804	14	1.7286401767676
22	914	15	1.9816285774309
22	1118	16	2.1079527079455
22	1330	17	2.1448088260864
22	1542	18	2.1888886487075
22	1754	19	2.4157478418467
22	1966	20	2.7154739126175
22	2304	21	2.5472453318885
22	2650	22	2.7733962675778
22	2996	23	2.911902643258
22	3342	24	3.0170882744215
22	3688	25	3.2426118635445
22	4119	26	3.3086056698651
22	4558	27	3.3979740586144
22	5005	28	3.5162254428923
22	5452	29	3.9443233962461
22	5899	30	3.9686582002173
22	6443	31	3.9807759971189
22	6995	32	4.1316473259802
22	7547	33	4.2229533779547
22	8107	34	4.7327165134982
22	8776	35	4.599543197003
22	9453	36	4.7846616284059
22	10138	37	5.0125020139708
22	10831	38	5.4340614973705
22	11532	39	5.5201383436698
22	12354	40	5.3450188196369
22	13192	41	5.8499577120334
22	14030	42	6.1178158998205
22	14876	43	5.9001244121696
22	15730	44	6.3237514275192
22	16709	45	6.6547012270867
22	17704	46	6.7004595131209
22	18715	47	7.0724750972651
22	19726	48	7.1632259218866
22	20745	49	7.5108532531395
22	21893	50	4.331086357173
22	23049	51	3.6749184626712
22	24221	52	3.7896288012525
22	25409	53	3.6013150073589
22	26589	54	3.9828678603231
22	27902	55	3.568317950033
22	29313	56	3.7176702453615
22	30658	57	3.89163068765
22	32971	58	3.6169422631938
22	34316	59	3.7510983910367
22	36962	60	3.9518046716323
22	38436	61	3.5497944882886
22	40095	62	3.8149580096584
22	41593	63	3.867372631896
22	43083	64	3.6657175099498
22	44650	65	3.7091748374457
22	46241	66	3.8918020109408
22	47856	67	3.7718816406357
22	49471	68	3.6762372545071
21	474	11	0.63549781285226
21	584	12	0.55757485399023
21	694	13	0.60559704351239
21	804	14	0.52351580809802
21	914	15	0.65798013584688
21	1118	16	0.64819906047545
21	1330	17	0.58198179044761
21	1542	18	0.53856783960015
21	1754	19	0.60926991266199
21	1966	20	0.69755555372685
21	2304	21	0.54122212666087
21	2650	22	0.59510733042844
21	2996	23	0.60013933409937
21	3342	24	0.59027563878335
21	3688	25	0.62650862275623
21	4119	26	0.59899192801677
21	4558	27	0.58336236888542
21	5005	28	0.57887164063752
21	5452	29	0.66894998801872
21	5899	30	0.6264128155075
21	6443	31	0.58612288967707
21	6995	32	0.58807897120714
21	7547	33	0.57366399046034
21	8107	34	0.66430351604708
21	8776	35	0.58845084580592
21	9453	36	0.59503795105031
21	10138	37	0.60957702713085
21	10831	38	0.66309257192535
21	11532	39	0.63937839848919
21	12354	40	0.56507364328018
21	13192	41	0.63172121565787
21	14030	42	0.64479971194638
21	14876	43	0.56614852246827
21	15730	44	0.61046592563389
21	16709	45	0.63295355500652
21	17704	46	0.6037813913822
21	18715	47	0.63087394781409
21	19726	48	0.60896481569855
21	20745	49	0.62890373555942
21	21893	50	0.09513209943707
21	23049	51	-0.013320055119692
21	24221	52	0.0055294444225709
21	25409	53	-0.024855556460096
21	26589	54	0.037150024138391
21	27902	55	-0.030574238682167
21	29313	56	-0.0055508730560518
21	30658	57	0.022518078479916
21	32971	58	-0.022302246075125
21	34316	59	-2.085799351903e-06
21	36962	60	0.032137506278232
21	38436	61	-0.033418476125227
21	40095	62	0.010278738215568
21	41593	63	0.018302147071807
21	43083	64	-0.014651764212175
21	44650	65	-0.0071704480238282
21	46241	66	0.022339027784767
21	47856	67	0.0023412091378106
21	49471	68	-0.013064982248469
20	364	10	1.2017359573857
20	474	11	1.837233770238
20	584	12	2.3948086242282
20	694	13	3.0004056677406
20	804	14	3.5239214758386
20	914	15	4.1819016116855
20	1118	16	4.830100672161
20	1330	17	5.4120824626086
20	1542	18	5.9506503022087
20	1754	19	6.5599202148707
20	1966	20	7.2574757685975
20	2304	21	7.7986978952584
20	2650	22	8.3938052256868
20	2996	23	8.9939445597862
20	3342	24	9.5842201985696
20	3688	25	10.210728821326
20	4119	26	10.809720749343
20	4558	27	11.393083118228
20	5005	28	11.971954758866
20	5452	29	12.640904746884
20	5899	30	13.267317562392
20	6443	31	13.853440452069
20	6995	32	14.441519423276
20	7547	33	15.015183413736
20	8107	34	15.679486929783
20	8776	35	16.267937775589
20	9453	36	16.86297572664
20	10138	37	17.47255275377
20	10831	38	18.135645325696
20	11532	39	18.775023724185
20	12354	40	19.340097367465
20	13192	41	19.971818583123
20	14030	42	20.616618295069
20	14876	43	21.182766817538
20	15730	44	21.793232743172
20	16709	45	22.426186298178
20	17704	46	23.02996768956
20	18715	47	23.660841637374
20	19726	48	24.269806453073
20	20745	49	24.898710188632
20	21893	50	24.993842288069
20	23049	51	24.98052223295
20	24221	52	24.986051677372
20	25409	53	24.961196120912
20	26589	54	24.998346145051
20	27902	55	24.967771906368
20	29313	56	24.962221033312
20	30658	57	24.984739111792
20	32971	58	24.962436865717
20	34316	59	24.962434779918
20	36962	60	24.994572286196
20	38436	61	24.961153810071
20	40095	62	24.971432548286
20	41593	63	24.989734695358
20	43083	64	24.975082931146
20	44650	65	24.967912483122
20	46241	66	24.990251510907
20	47856	67	24.992592720045
20	49471	68	24.979527737796
19	295	9	516.75
19	364	10	516.75
19	474	11	516.75
19	584	12	516.75
19	694	13	516.75
19	804	14	516.75
19	914	15	516.75
19	1118	16	516.75
19	1330	17	516.75
19	1542	18	516.75
19	1754	19	516.75
19	1966	20	516.75
19	2304	21	516.75
19	2650	22	516.75
19	2996	23	516.75
19	3342	24	516.75
19	3688	25	520.05
19	4119	26	520.05
19	4558	27	520.05
19	5005	28	520.05
19	5452	29	520.05
19	5899	30	520.05
19	6443	31	520.05
19	6995	32	520.05
19	7547	33	520.05
19	8107	34	523.35
19	8776	35	523.35
19	9453	36	523.35
19	10138	37	523.35
19	10831	38	523.35
19	11532	39	523.35
19	12354	40	523.35
19	13192	41	523.35
19	14030	42	523.35
19	14876	43	523.35
19	15730	44	523.35
19	16709	45	523.35
19	17704	46	523.35
19	18715	47	523.35
19	19726	48	523.35
19	20745	49	523.35
19	21893	50	536.54097600028
19	23049	51	561.5214155924
19	24221	52	586.49387315536
19	25409	53	611.4771290859
19	26589	54	636.44991491165
19	27902	55	661.43493760253
19	29313	56	686.41043707217
19	30658	57	711.38722458774
19	32971	58	736.36206927822
19	34316	59	761.34113928812
19	36962	60	786.31345016013
19	38436	61	811.29839636047
19	40095	62	836.27287179952
19	41593	63	861.2487408157
19	43083	64	886.23161912888
19	44650	65	911.21310265035
19	46241	66	936.19891861235
19	47856	67	961.17629311373
19	49471	68	986.15521258078
18	295	9	1014.5726307437
18	364	10	1014.5726307437
18	474	11	1013.6294592171
18	584	12	1012.077388231
18	694	13	1009.9372551362
18	804	14	1007.1999595949
18	914	15	1003.9258445591
18	1118	16	1000.0419223614
18	1330	17	995.49625667856
18	1542	18	990.35663176068
18	1754	19	984.62960295713
18	1966	20	978.35419967854
18	2304	21	971.40672176084
18	2650	22	963.83905498862
18	2996	23	955.71667012942
18	3342	24	946.99842720901
18	3688	25	937.67953936164
18	4119	26	927.73409281313
18	4558	27	917.19844752013
18	5005	28	906.07095859303
18	5452	29	894.35947315249
18	5899	30	882.02420121911
18	6443	31	869.03463082471
18	6995	32	855.44939650994
18	7547	33	841.28073994743
18	8107	34	826.53381057498
18	8776	35	811.129516467
18	9453	36	795.11966954722
18	10138	37	778.53619960847
18	10831	38	761.34830187718
18	11532	39	743.49156079022
18	12354	40	724.99714597419
18	13192	41	705.92025801785
18	14030	42	686.23690725029
18	14876	43	665.92697358173
18	15730	44	644.99599552856
18	16709	45	623.45872375932
18	17704	46	601.32060203243
18	18715	47	578.56671978218
18	19726	48	555.18758485265
18	20745	49	531.17432886663
18	21893	50	516.75
18	23049	51	516.75
18	24221	52	516.75
18	25409	53	516.75
18	26589	54	516.75
18	27902	55	516.75
18	29313	56	516.75
18	30658	57	516.75
18	32971	58	516.75
18	34316	59	516.75
18	36962	60	516.75
18	38436	61	516.75
18	40095	62	516.75
18	41593	63	516.75
18	43083	64	516.75
18	44650	65	516.75
18	46241	66	516.75
18	47856	67	516.75
18	49471	68	516.75
vector 125  RSUExampleScenario2.node[17].veinsmobility  speed  ETV
vector 126  RSUExampleScenario2.node[17].veinsmobility  acceleration  ETV
vector 127  RSUExampleScenario2.node[17].veinsmobility  co2emission  ETV
vector 130  RSUExampleScenario2.node[18].veinsmobility  posx  ETV
vector 131  RSUExampleScenario2.node[18].veinsmobility  posy  ETV
vector 132  RSUExampleScenario2.node[18].veinsmobility  speed  ETV
vector 133  RSUExampleScenario2.node[18].veinsmobility  acceleration  ETV
vector 134  RSUExampleScenario2.node[18].veinsmobility  co2emission  ETV
36	1330	17	1.4059100744786
36	1542	18	1.5218413744614
36	1754	19	1.6627945834643
36	1966	20	1.7976035473874
36	2304	21	1.9533814637098
36	2650	22	2.0295101007757
36	2996	23	2.1058783582769
36	3342	24	2.2976225123182
36	3688	25	2.3808583029694
36	4119	26	2.4488012997932
36	4558	27	2.6034048085462
36	5005	28	2.696024854294
36	5452	29	2.9677798227031
36	5899	30	2.9986851945982
36	6443	31	3.1128176504548
36	6995	32	3.2612712018729
36	7547	33	3.3973566654455
36	8107	34	3.4230049187924
36	8776	35	3.8418944744751
36	9453	36	3.8293955659238
36	10138	37	3.9178653373407
36	10831	38	3.994294248802
36	11532	39	4.0013067017695
36	12354	40	4.4205449416821
36	13192	41	4.4114738200351
36	14030	42	4.7758475338171
36	14876	43	4.8094078962838
36	15730	44	4.8629113368925
36	16709	45	5.501841479849
36	17704	46	5.3453857807548
36	18715	47	5.7220565860741
36	19726	48	5.7568069935554
36	20745	49	5.6108725487149
36	21893	50	5.9616944680741
36	23049	51	6.4882301281964
36	24221	52	6.5753239160099
36	25409	53	6.5743145025379
36	26589	54	6.3992346336351
36	27902	55	6.8006961920395
36	29313	56	6.872468073411
36	30658	57	5.4242224500206
36	32971	58	3.8483047427003
36	34316	59	3.6917758182611
36	36962	60	3.7249577936778
36	38436	61	3.8669842147298
36	40095	62	3.659021249836
36	41593	63	3.7515756034366
36	43083	64	3.9173466084527
36	44650	65	3.7359197284082
36	46241	66	3.7317574157738
36	47856	67	3.7052078764782
36	49471	68	3.7086632682948
36	51207	69	3.8077575619056
36	52854	70	3.6733870519243
36	54533	71	3.8803402919939
36	56164	72	3.7622079187068
36	57795	73	3.8160414439685
36	59563	74	3.6164422541931
36	61355	75	3.7509725463834
35	1330	17	0.61123291578144
35	1542	18	0.60535126163624
35	1754	19	0.63149815293029
35	1966	20	0.63795874656178
35	2304	21	0.65868417887949
35	2650	22	0.6109691631794
35	2996	23	0.57871726265177
35	3342	24	0.62729974273592
35	3688	25	0.59987565105781
35	4119	26	0.57077944441699
35	4558	27	0.59043473524041
35	5005	28	0.57664161461405
35	5452	29	0.64173293887638
35	5899	30	0.59607772340998
35	6443	31	0.59004144651816
35	6995	32	0.59674722440541
35	7547	33	0.59734096908942
35	8107	34	0.5611458142288
35	8776	35	0.65215085318312
35	9453	36	0.60032897931524
35	10138	37	0.58418428514153
35	10831	38	0.5663508023601
35	11532	39	0.53194236485288
35	12354	40	0.60623281798326
35	13192	41	0.56521427347325
35	14030	42	0.61692718192003
35	14876	43	0.5859373227693
35	15730	44	0.56241177148184
35	16709	45	0.6658805830404
35	17704	46	0.59197094184345
35	18715	47	0.63253997523336
35	19726	48	0.60132350814527
35	20745	49	0.53869344664736
35	21893	50	0.57358643613754
35	23049	51	0.6353840217646
35	24221	52	0.61323184705338
35	25409	53	0.57773759985341
35	26589	54	0.51623469544573
35	27902	55	0.55374394509008
35	29313	56	0.53462824828921
35	30658	57	0.27787432836538
35	32971	58	0.015394686264916
35	34316	59	-0.010231488756833
35	36962	60	-0.0045517171546834
35	38436	61	0.018362976415084
35	40095	62	-0.015608993098141
35	41593	63	-0.00022117787971965
35	43083	64	0.026329456940292
35	44650	65	-0.0036529289558516
35	46241	66	-0.0041906732693313
35	47856	67	-0.0082971142604968
35	49471	68	-0.0074516805261347
35	51207	69	0.0086907418537869
35	52854	70	-0.013151431521401
35	54533	71	0.020471357386558
35	56164	72	0.00082557079382184
35	57795	73	0.0094145186617993
35	59563	74	-0.022894655307756
35	61355	75	-0.0005258006043718
34	1118	16	0.90037707816661
34	1330	17	1.511609993948
34	1542	18	2.1169612555843
34	1754	19	2.7484594085146
34	1966	20	3.3864181550764
34	2304	21	4.0451023339558
34	2650	22	4.6560714971352
34	2996	23	5.234788759787
34	3342	24	5.8620885025229
34	3688	25	6.4619641535807
34	4119	26	7.0327435979977
34	4558	27	7.6231783332381
34	5005	28	8.1998199478522
34	5452	29	8.8415528867286
34	5899	30	9.4376306101386
34	6443	31	10.027672056657
34	6995	32	10.624419281062
34	7547	33	11.221760250152
34	8107	34	11.78290606438
34	8776	35	12.435056917563
34	9453	36	13.035385896879
34	10138	37	13.61957018202
34	10831	38	14.18592098438
34	11532	39	14.717863349233
34	12354	40	15.324096167216
34	13192	41	15.88931044069
34	14030	42	16.50623762261
34	14876	43	17.092174945379
34	15730	44	17.654586716861
34	16709	45	18.320467299901
34	17704	46	18.912438241745
34	18715	47	19.544978216978
34	19726	48	20.146301725123
34	20745	49	20.684995171771
34	21893	50	21.258581607908
34	23049	51	21.893965629673
34	24221	52	22.507197476726
34	25409	53	23.08493507658
34	26589	54	23.601169772025
34	27902	55	24.154913717115
34	29313	56	24.689541965405
34	30658	57	24.96741629377
34	32971	58	24.982810980035
34	34316	59	24.972579491278
34	36962	60	24.968027774123
34	38436	61	24.986390750539
34	40095	62	24.97078175744
34	41593	63	24.970560579561
34	43083	64	24.996890036501
34	44650	65	24.993237107545
34	46241	66	24.989046434276
34	47856	67	24.980749320015
34	49471	68	24.973297639489
34	51207	69	24.981988381343
34	52854	70	24.968836949822
34	54533	71	24.989308307208
34	56164	72	24.990133878002
34	57795	73	24.999548396664
34	59563	74	24.976653741356
34	61355	75	24.976127940752
33	914	15	516.75
33	1118	16	516.75
33	1330	17	516.75
33	1542	18	516.75
33	1754	19	516.75
33	1966	20	516.75
33	2304	21	516.75
33	2650	22	516.75
33	2996	23	516.75
33	3342	24	516.75
33	3688	25	516.75
33	4119	26	516.75
33	4558	27	516.75
33	5005	28	516.75
33	5452	29	516.75
33	5899	30	516.75
33	6443	31	520.05
33	6995	32	520.05
33	7547	33	520.05
33	8107	34	520.05
33	8776	35	520.05
33	9453	36	520.05
33	10138	37	520.05
33	10831	38	520.05
33	11532	39	523.35
33	12354	40	523.35
33	13192	41	523.35
33	14030	42	523.35
33	14876	43	523.35
33	15730	44	523.35
33	16709	45	523.35
33	17704	46	523.35
33	18715	47	523.35
33	19726	48	523.35
33	20745	49	523.35
33	21893	50	523.35
33	23049	51	523.35
33	24221	52	523.35
33	25409	53	523.35
33	26589	54	523.35
33	27902	55	523.35
33	29313	56	524.82037764603
33	30658	57	548.2728935951
33	32971	58	573.20311045819
33	34316	59	598.18251253105
33	36962	60	623.1638994575
33	38436	61	648.14666709537
33	40095	62	673.12824353085
33	41593	63	698.108106364
33	43083	64	723.08882570614
33	44650	65	748.06120765832
33	46241	66	773.03920956201
33	47856	67	798.01801641609
33	49471	68	823.00104526542
33	51207	69	847.98073597654
33	52854	70	872.95667374911
33	54533	71	897.93631469318
33	56164	72	922.92363023808
33	57795	73	947.9093154151
33	59563	74	972.88979583775
33	61355	75	997.86948218993
32	914	15	1014.8257787475
32	1118	16	1014.8257787475
32	1330	17	1014.1866934449
32	1542	18	1012.9466583309
32	1754	19	1011.0937998712
32	1966	20	1008.6401412022
32	2304	21	1005.5466775584
32	2650	22	1001.8043291669
32	2996	23	997.42324243766
32	3342	24	992.47032503856
32	3688	25	986.89576017595
32	4119	26	980.69638933476
32	4558	27	973.91476148457
32	5005	28	966.53888788294
32	5452	29	958.60624802822
32	5899	30	950.06836976802
32	6443	31	940.88765621788
32	6995	32	931.13187758446
32	7547	33	920.77212187656
32	8107	34	909.83251669521
32	8776	35	898.29007535956
32	9453	36	886.14438248839
32	10138	37	873.36178206929
32	10831	38	860.00572961065
32	11532	39	846.0745140964
32	12354	40	831.60417439925
32	13192	41	816.57713590588
32	14030	42	800.94965532331
32	14876	43	784.71205508231
32	15730	44	767.8737751733
32	16709	45	750.47578215682
32	17704	46	732.44873422328
32	18715	47	713.7862206141
32	19726	48	694.52270845439
32	20745	49	674.63848065694
32	21893	50	654.19627046014
32	23049	51	633.18921060724
32	24221	52	611.59212004077
32	25409	53	589.37088151713
32	26589	54	566.54856149651
32	27902	55	543.18664229922
32	29313	56	519.49837663007
32	30658	57	516.75
32	32971	58	516.75
32	34316	59	516.75
32	36962	60	516.75
32	38436	61	516.75
32	40095	62	516.75
32	41593	63	516.75
32	43083	64	516.75
32	44650	65	516.75
32	46241	66	516.75
32	47856	67	516.75
32	49471	68	516.75
32	51207	69	516.75
32	52854	70	516.75
32	54533	71	516.75
32	56164	72	516.75
32	57795	73	516.75
32	59563	74	516.75
32	61355	75	516.75
vector 137  RSUExampleScenario2.node[19].veinsmobility  posx  ETV
vector 138  RSUExampleScenario2.node[19].veinsmobility  posy  ETV
vector 139  RSUExampleScenario2.node[19].veinsmobility  speed  ETV
vector 140  RSUExampleScenario2.node[19].veinsmobility  acceleration  ETV
vector 141  RSUExampleScenario2.node[19].veinsmobility  co2emission  ETV
vector 144  RSUExampleScenario2.node[20].veinsmobility  posx  ETV
vector 145  RSUExampleScenario2.node[20].veinsmobility  posy  ETV
vector 146  RSUExampleScenario2.node[20].veinsmobility  speed  ETV
vector 147  RSUExampleScenario2.node[20].veinsmobility  acceleration  ETV
vector 148  RSUExampleScenario2.node[20].veinsmobility  co2emission  ETV
vector 151  RSUExampleScenario2.node[21].veinsmobility  posx  ETV
vector 152  RSUExampleScenario2.node[21].veinsmobility  posy  ETV
vector 153  RSUExampleScenario2.node[21].veinsmobility  speed  ETV
vector 154  RSUExampleScenario2.node[21].veinsmobility  acceleration  ETV
vector 155  RSUExampleScenario2.node[21].veinsmobility  co2emission  ETV
50	2650	22	1.4089601965597
50	2996	23	1.5465741167916
50	3342	24	1.6542589652629
50	3688	25	1.7949845953921
50	4119	26	1.9547890373341
50	4558	27	2.0220392472309
50	5005	28	2.1547598768419
50	5452	29	2.239572816569
50	5899	30	2.3535485565613
50	6443	31	2.5070721484552
50	6995	32	2.5980308227119
50	7547	33	2.6498130869562
50	8107	34	2.7801671751447
50	8776	35	3.1293836505646
50	9453	36	3.2214355100113
50	10138	37	3.3858728085573
50	10831	38	3.4758362646303
50	11532	39	3.8874432689321
50	12354	40	3.6047176601588
50	13192	41	3.9791405896318
50	14030	42	3.8966842154938
50	14876	43	4.0583809635601
50	15730	44	4.1191069453495
50	16709	45	4.416810290682
50	17704	46	4.282040260035
50	18715	47	4.7102121354265
50	19726	48	2.4215271705121
50	20745	49	2.4758598752507
50	21893	50	2.3639949549002
50	23049	51	2.2234491353924
50	24221	52	2.4098203987817
50	25409	53	2.3470208678227
50	26589	54	2.2865330246698
50	27902	55	2.3202818617106
50	29313	56	2.433961562273
50	30658	57	2.2912568386623
50	32971	58	2.3323942129231
50	34316	59	2.3415861453318
50	36962	60	2.3576796409799
50	38436	61	2.3620085679739
50	40095	62	2.294438152662
50	41593	63	2.3810476771695
50	43083	64	2.3678397588489
50	44650	65	2.2574926765351
50	46241	66	2.3997059431859
50	47856	67	2.3647144809504
50	49471	68	2.2873607309339
50	51207	69	2.3787660347328
50	52854	70	2.2526824046796
50	54533	71	2.3713289864524
50	56164	72	2.2683078089575
50	57795	73	2.4060453964272
50	59563	74	2.3024998305503
50	61355	75	2.3743222384456
50	63180	76	2.4039870605941
50	64931	77	2.2467823730416
50	66674	78	2.4043309160184
50	68546	79	2.3822461362027
50	70458	80	2.271102396563
50	72394	81	2.3186996562732
50	74330	82	2.4338120024529
50	76258	83	2.2197999605305
50	78343	84	2.3605006263131
50	80460	85	2.3596950249877
50	82569	86	2.3695596529124
50	84630	87	2.309155730967
50	86683	88	2.3502922301053
50	88889	89	2.2966658687327
50	91127	90	2.4574588637646
50	93373	91	2.3284340607469
50	95611	92	2.3475626173073
49	2650	22	0.59264504849911
49	2996	23	0.62571765969507
49	3342	24	0.60519486479461
49	3688	25	0.62638686083257
49	4119	26	0.65388622350991
49	4558	27	0.60095622483641
49	5005	28	0.6094791742973
49	5452	29	0.58515171692707
49	5899	30	0.58348115365021
49	6443	31	0.60238143946976
49	6995	32	0.5855172369536
49	7547	33	0.55376978615299
49	8107	34	0.56186076900922
49	8776	35	0.65607324173674
49	9453	36	0.63325634240173
49	10138	37	0.63980725171976
49	10831	38	0.61920305335894
49	11532	39	0.7042074590642
49	12354	40	0.56264266096055
49	13192	41	0.63445868471637
49	14030	42	0.56666690160521
49	14876	43	0.57367896281183
49	15730	44	0.55275791987777
49	16709	45	0.59347516938113
49	17704	46	0.52330218506977
49	18715	47	0.59348130295051
49	19726	48	0.021044902520639
49	20745	49	0.03348874383606
49	21893	50	0.0054622685629901
49	23049	51	-0.028678353624422
49	24221	52	0.017237438810991
49	25409	53	0.001546392245217
49	26589	54	-0.013120614280922
49	27902	55	-0.0045672225020823
49	29313	56	0.023026551408691
49	30658	57	-0.012135670371354
49	32971	58	-0.0018287592660613
49	34316	59	0.00044785539619596
49	36962	60	0.0043223043531171
49	38436	61	0.0052358587831272
49	40095	62	-0.011249319529163
49	41593	63	0.010016631875189
49	43083	64	0.0065211309585713
49	44650	65	-0.020342716071756
49	46241	66	0.01463758058846
49	47856	67	0.0057418828736999
49	49471	68	-0.013118131952361
49	51207	69	0.0093595143687004
49	52854	70	-0.021399024501445
49	54533	71	0.0079335010983073
49	56164	72	-0.017223151614893
49	57795	73	0.016605516318233
49	59563	74	-0.0089280511811367
49	61355	75	0.0087060969043513
49	63180	76	0.015598574746402
49	64931	77	-0.022865013014528
49	66674	78	0.015907673556359
49	68546	79	0.010085595464332
49	70458	80	-0.017069967351851
49	72394	81	-0.0050522787868985
49	74330	82	0.022897983863949
49	76258	83	-0.029512321986257
49	78343	84	0.0054062044247978
49	80460	85	0.0050465249922134
49	82569	86	0.0072750914283084
49	84630	87	-0.007541187331082
49	86683	88	0.0026290426682714
49	88889	89	-0.010416308669374
49	91127	90	0.02873148849234
49	93373	91	-0.0032836987264488
49	95611	92	0.0014338988158862
48	2304	21	0.97019341295734
48	2650	22	1.5628384614565
48	2996	23	2.1885561211515
48	3342	24	2.7937509859461
48	3688	25	3.4201378467787
48	4119	26	4.0740240702886
48	4558	27	4.674980295125
48	5005	28	5.2844594694223
48	5452	29	5.8696111863494
48	5899	30	6.4530923399996
48	6443	31	7.0554737794694
48	6995	32	7.640991016423
48	7547	33	8.194760802576
48	8107	34	8.7566215715852
48	8776	35	9.4126948133219
48	9453	36	10.045951155724
48	10138	37	10.685758407443
48	10831	38	11.304961460802
48	11532	39	12.009168919867
48	12354	40	12.571811580827
48	13192	41	13.206270265543
48	14030	42	13.772937167149
48	14876	43	14.346616129961
48	15730	44	14.899374049838
48	16709	45	15.492849219219
48	17704	46	16.016151404289
48	18715	47	16.60963270724
48	19726	48	16.63067760976
48	20745	49	16.664166353596
48	21893	50	16.669628622159
48	23049	51	16.640950268535
48	24221	52	16.658187707346
48	25409	53	16.659734099591
48	26589	54	16.64661348531
48	27902	55	16.642046262808
48	29313	56	16.665072814217
48	30658	57	16.652937143845
48	32971	58	16.651108384579
48	34316	59	16.651556239976
48	36962	60	16.655878544329
48	38436	61	16.661114403112
48	40095	62	16.649865083583
48	41593	63	16.659881715458
48	43083	64	16.666402846416
48	44650	65	16.646060130345
48	46241	66	16.660697710933
48	47856	67	16.666439593807
48	49471	68	16.653321461855
48	51207	69	16.662680976223
48	52854	70	16.641281951722
48	54533	71	16.64921545282
48	56164	72	16.631992301205
48	57795	73	16.648597817523
48	59563	74	16.639669766342
48	61355	75	16.648375863247
48	63180	76	16.663974437993
48	64931	77	16.641109424978
48	66674	78	16.657017098535
48	68546	79	16.667102693999
48	70458	80	16.650032726647
48	72394	81	16.64498044786
48	74330	82	16.667878431724
48	76258	83	16.638366109738
48	78343	84	16.643772314163
48	80460	85	16.648818839155
48	82569	86	16.656093930583
48	84630	87	16.648552743252
48	86683	88	16.651181785921
48	88889	89	16.640765477251
48	91127	90	16.669496965744
48	93373	91	16.666213267017
48	95611	92	16.667647165833
47	1966	20	516.75
47	2304	21	516.75
47	2650	22	516.75
47	2996	23	516.75
47	3342	24	516.75
47	3688	25	516.75
47	4119	26	516.75
47	4558	27	516.75
47	5005	28	516.75
47	5452	29	516.75
47	5899	30	516.75
47	6443	31	516.75
47	6995	32	516.75
47	7547	33	516.75
47	8107	34	516.75
47	8776	35	516.75
47	9453	36	516.75
47	10138	37	516.75
47	10831	38	516.75
47	11532	39	516.75
47	12354	40	516.75
47	13192	41	516.75
47	14030	42	516.75
47	14876	43	516.75
47	15730	44	516.75
47	16709	45	516.75
47	17704	46	516.75
47	18715	47	516.75
47	19726	48	516.75
47	20745	49	516.75
47	21893	50	516.75
47	23049	51	516.75
47	24221	52	516.75
47	25409	53	516.75
47	26589	54	516.75
47	27902	55	516.75
47	29313	56	516.75
47	30658	57	516.75
47	32971	58	516.75
47	34316	59	516.75
47	36962	60	516.75
47	38436	61	516.75
47	40095	62	516.75
47	41593	63	516.75
47	43083	64	516.75
47	44650	65	516.75
47	46241	66	516.75
47	47856	67	516.75
47	49471	68	516.75
47	51207	69	516.75
47	52854	70	516.75
47	54533	71	516.75
47	56164	72	516.75
47	57795	73	516.75
47	59563	74	516.75
47	61355	75	516.75
47	63180	76	516.75
47	64931	77	516.75
47	66674	78	516.75
47	68546	79	516.75
47	70458	80	516.75
47	72394	81	516.75
47	74330	82	516.75
47	76258	83	516.75
47	78343	84	516.75
47	80460	85	516.75
47	82569	86	516.75
47	84630	87	516.75
47	86683	88	516.75
47	88889	89	516.75
47	91127	90	516.75
47	93373	91	516.75
47	95611	92	516.75
46	1966	20	1019.7860960184
46	2304	21	1019.7860960184
46	2650	22	1019.065405233
46	2996	23	1017.7820626175
46	3342	24	1015.8831549291
46	3688	25	1013.3623341536
46	4119	26	1010.2351969162
46	4558	27	1006.4687274221
46	5005	28	1002.0579996057
46	5452	29	997.05414794487
46	5899	30	991.4346046312
46	6443	31	985.22657296167
46	6995	32	978.44821105005
46	7547	33	971.07337585043
46	8107	34	963.13987117772
46	8776	35	954.63000947719
46	9453	36	945.51793180581
46	10138	37	935.73946691603
46	10831	38	925.33169689064
46	11532	39	914.29366349955
46	12354	40	902.6003975185
46	13192	41	890.26807999013
46	14030	42	877.337391916
46	14876	43	863.81560132928
46	15730	44	849.72536588584
46	16709	45	835.067901471
46	17704	46	819.84609100752
46	18715	47	804.06613356427
46	19726	48	787.71605275649
46	20745	49	771.0652818916
46	21893	50	754.41399545223
46	23049	51	737.76116959496
46	24221	52	721.114893496
46	25409	53	704.46948534106
46	26589	54	687.81392437319
46	27902	55	671.16055963839
46	29313	56	654.51323838852
46	30658	57	637.86117257464
46	32971	58	621.21386258158
46	34316	59	604.56166569687
46	36962	60	587.91649771876
46	38436	61	571.26933648182
46	40095	62	554.61384803268
46	41593	63	537.9566219582
46	43083	64	521.30325631597
46	44650	65	504.6519585317
46	46241	66	488.00128413239
46	47856	67	471.35418224925
46	49471	68	454.700547209
46	51207	69	438.05699426024
46	52854	70	421.40552485298
46	54533	71	404.76024052788
46	56164	72	388.10958568162
46	57795	73	371.46064713609
46	59563	74	354.81395537333
46	61355	75	338.16084766969
46	63180	76	321.50860868664
46	64931	77	304.85235726278
46	66674	78	288.20244336095
46	68546	79	271.54973178448
46	70458	80	254.90245669545
46	72394	81	238.25361523626
46	74330	82	221.59884632098
46	76258	83	204.95107195797
46	78343	84	188.29410744769
46	80460	85	171.64331295128
46	82569	86	154.9869619131
46	84630	87	138.33650134167
46	86683	88	121.69020867389
46	88889	89	105.0383504814
46	91127	90	88.391557093607
46	93373	91	71.74232322687
46	95611	92	55.083548445575
vector 158  RSUExampleScenario2.node[22].veinsmobility  posx  ETV
vector 159  RSUExampleScenario2.node[22].veinsmobility  posy  ETV
vector 160  RSUExampleScenario2.node[22].veinsmobility  speed  ETV
vector 161  RSUExampleScenario2.node[22].veinsmobility  acceleration  ETV
vector 162  RSUExampleScenario2.node[22].veinsmobility  co2emission  ETV
vector 165  RSUExampleScenario2.node[23].veinsmobility  posx  ETV
vector 166  RSUExampleScenario2.node[23].veinsmobility  posy  ETV
vector 167  RSUExampleScenario2.node[23].veinsmobility  speed  ETV
vector 168  RSUExampleScenario2.node[23].veinsmobility  acceleration  ETV
vector 169  RSUExampleScenario2.node[23].veinsmobility  co2emission  ETV
vector 172  RSUExampleScenario2.node[24].veinsmobility  posx  ETV
vector 173  RSUExampleScenario2.node[24].veinsmobility  posy  ETV
vector 174  RSUExampleScenario2.node[24].veinsmobility  speed  ETV
vector 175  RSUExampleScenario2.node[24].veinsmobility  acceleration  ETV
vector 176  RSUExampleScenario2.node[24].veinsmobility  co2emission  ETV
vector 179  RSUExampleScenario2.node[25].veinsmobility  posx  ETV
vector 180  RSUExampleScenario2.node[25].veinsmobility  posy  ETV
vector 181  RSUExampleScenario2.node[25].veinsmobility  speed  ETV
vector 182  RSUExampleScenario2.node[25].veinsmobility  acceleration  ETV
vector 183  RSUExampleScenario2.node[25].veinsmobility  co2emission  ETV
vector 186  RSUExampleScenario2.node[26].veinsmobility  posx  ETV
vector 187  RSUExampleScenario2.node[26].veinsmobility  posy  ETV
vector 188  RSUExampleScenario2.node[26].veinsmobility  speed  ETV
vector 189  RSUExampleScenario2.node[26].veinsmobility  acceleration  ETV
vector 190  RSUExampleScenario2.node[26].veinsmobility  co2emission  ETV
vector 193  RSUExampleScenario2.node[27].veinsmobility  posx  ETV
vector 194  RSUExampleScenario2.node[27].veinsmobility  posy  ETV
vector 195  RSUExampleScenario2.node[27].veinsmobility  speed  ETV
vector 196  RSUExampleScenario2.node[27].veinsmobility  acceleration  ETV
vector 197  RSUExampleScenario2.node[27].veinsmobility  co2emission  ETV
vector 200  RSUExampleScenario2.node[28].veinsmobility  posx  ETV
vector 201  RSUExampleScenario2.node[28].veinsmobility  posy  ETV
vector 202  RSUExampleScenario2.node[28].veinsmobility  speed  ETV
vector 203  RSUExampleScenario2.node[28].veinsmobility  acceleration  ETV
vector 204  RSUExampleScenario2.node[28].veinsmobility  co2emission  ETV
43	1330	17	1.3958982896967
43	1542	18	1.551975173039
43	1754	19	1.636084788265
43	1966	20	1.7238746698929
43	2304	21	1.8919874704307
43	2650	22	2.0240880949442
43	2996	23	2.089918574571
43	3342	24	2.1773884683757
43	3688	25	2.4007471956979
43	4119	26	2.4439230646768
43	4558	27	2.7415982059922
43	5005	28	2.8220336027923
43	5452	29	2.8558971865227
43	5899	30	2.9619963293952
43	6443	31	3.178872671124
43	6995	32	3.0210429867639
43	7547	33	3.1869576457843
43	8107	34	3.60119315238
43	8776	35	3.7560695726742
43	9453	36	3.5724867785278
43	10138	37	3.9776002504205
43	10831	38	4.0092124851083
43	11532	39	4.2044708180885
43	12354	40	4.4268673020495
43	13192	41	4.6584320514838
43	14030	42	4.758564293886
43	14876	43	2.9682305083018
43	15730	44	2.2901008009611
43	16709	45	2.4402189725637
43	17704	46	2.2831560518376
43	18715	47	2.3946560259379
43	19726	48	2.253823169098
43	20745	49	2.2878751026416
43	21893	50	2.3505680511985
43	23049	51	2.4472212259625
43	24221	52	2.2297594821645
43	25409	53	2.4400103562466
43	26589	54	2.3426871147624
43	27902	55	0.973
43	29313	56	0.973
43	30658	57	0.973
43	32971	58	0.973
43	34316	59	0.973
43	36962	60	0.973
43	38436	61	0.973
43	40095	62	0.973
43	41593	63	0.973
43	43083	64	0.973
43	44650	65	0.973
43	46241	66	0.973
43	47856	67	0.973
43	49471	68	0.973
43	51207	69	0.973
43	52854	70	0.973
43	54533	71	0.973
43	56164	72	0.973
43	57795	73	0.973
43	59563	74	0.973
43	61355	75	0.973
43	63180	76	0.973
43	64931	77	0.973
43	66674	78	0.973
43	68546	79	0.973
43	70458	80	0.973
43	72394	81	0.973
43	74330	82	0.973
43	76258	83	1.2495704700463
43	78343	84	1.3633403171107
43	80460	85	1.4952185240621
43	82569	86	1.6498858072098
43	84630	87	1.6586266071777
43	86683	88	1.8786503972049
43	88889	89	1.8644010773688
43	91127	90	1.9955883650673
43	93373	91	2.2242323404404
43	95611	92	2.3448220747421
43	97873	93	2.3682670447763
43	100215	94	2.5486821847222
43	102573	95	2.6747111789678
43	104939	96	2.7685980337473
43	107297	97	2.7917817071024
43	109671	98	2.9837714961495
43	112210	99	3.2699365877537
43	114773	100	3.6306503297316
43	117352	101	3.5977830209177
43	119923	102	3.7415479825689
43	122647	103	3.75857159231
43	125395	104	4.0594593959294
43	128175	105	4.2642668764887
43	130947	106	4.4217123105123
43	133711	107	4.5360199806653
43	136648	108	4.4347789120233
43	139594	109	4.652577227379
43	142571	110	2.8586114202614
43	145548	111	2.2787953650614
43	148525	112	2.3893916141106
43	151631	113	2.3089226795185
43	154761	114	2.347419953147
43	157899	115	2.2903419293082
43	161037	116	2.3229983626532
43	164167	117	2.459785168197
43	167462	118	2.2178919836085
43	170725	119	2.3394089990572
43	173972	120	2.3336100979336
43	177163	121	2.4949419820257
43	180314	122	2.2480021285813
43	183706	123	2.3501769291724
43	186946	124	2.2959771543125
43	191217	125	2.3721894573411
42	1330	17	0.59341588656418
42	1542	18	0.65267269496806
42	1754	19	0.59374001611955
42	1966	20	0.56616107188165
42	2304	21	0.62036391740665
42	2650	22	0.62523483901285
42	2996	23	0.58183226632886
42	3342	24	0.56468578399159
42	3688	25	0.63075234477408
42	4119	26	0.58240331413224
42	4558	27	0.67073756058701
42	5005	28	0.63815273036249
42	5452	29	0.59215837124735
42	5899	30	0.58385439303704
42	6443	31	0.61859230476432
42	6995	32	0.5107537006028
42	7547	33	0.53233932333067
42	8107	34	0.63175030519255
42	8776	35	0.63267670566216
42	9453	36	0.53144306820817
42	10138	37	0.61383484683931
42	10831	38	0.58053730641492
42	11532	39	0.59455876262859
42	12354	40	0.6128016128391
42	13192	41	0.62998938529752
42	14030	42	0.61311712647787
42	14876	43	0.15646606335017
42	15730	44	-0.012113880719991
42	16709	45	0.024512883005663
42	17704	46	-0.014159335754812
42	18715	47	0.013200472127647
42	19726	48	-0.021228158632294
42	20745	49	-0.012363536432385
42	21893	50	0.0031769096851342
42	23049	51	0.026418429436163
42	24221	52	-0.026940134204924
42	25409	53	0.024696001652629
42	26589	54	0.00044274001382405
42	27902	55	-1.555633013025
42	29313	56	-3.4455731597871
42	30658	57	-3.177072320094
42	32971	58	-2.860460129053
42	34316	59	-2.3064274356483
42	36962	60	-1.6621816404897
42	38436	61	-0.97172354030261
42	40095	62	-0.2379705385442
42	41593	63	-0.44346990001045
42	43083	64	-5.4359919819071e-10
42	44650	65	0
42	46241	66	0
42	47856	67	0
42	49471	68	0
42	51207	69	0
42	52854	70	0
42	54533	71	0
42	56164	72	0
42	57795	73	0
42	59563	74	0
42	61355	75	0
42	63180	76	0
42	64931	77	0
42	66674	78	0
42	68546	79	0
42	70458	80	0
42	72394	81	0
42	74330	82	0
42	76258	83	0.66740201848245
42	78343	84	0.61739109872386
42	80460	85	0.63222793933004
42	82569	86	0.66491749431007
42	84630	87	0.52809819841757
42	86683	88	0.64402414685115
42	88889	89	0.52444920377806
42	91127	90	0.5516595068574
42	93373	91	0.63444379695691
42	95611	92	0.6267587894667
42	97873	93	0.56697286243551
42	100215	94	0.6018688605912
42	102573	95	0.6019412418548
42	104939	96	0.58700622123666
42	107297	97	0.54472653357312
42	109671	98	0.57707275028341
42	112210	99	0.63779754427262
42	114773	100	0.71186136876233
42	117352	101	0.64140732321888
42	119923	102	0.63781775351614
42	122647	103	0.5959434416052
42	125395	104	0.64141000559554
42	128175	105	0.65264998452738
42	130947	106	0.64890712968074
42	133711	107	0.63399218613282
42	136648	108	0.56787908427417
42	139594	109	0.58467075851744
42	142571	110	0.12917127301753
42	145548	111	-0.014837965592744
42	148525	112	0.012346987957134
42	151631	113	-0.007474876167251
42	154761	114	0.0020578745380035
42	157899	115	-0.011810039952397
42	161037	116	-0.0035542255640024
42	164167	117	0.029597265310585
42	167462	118	-0.029772452730686
42	170725	119	0.00052908471785429
42	173972	120	-0.00088998927734707
42	177163	121	0.038086892794819
42	180314	122	-0.022707811091095
42	183706	123	0.002677531270308
42	186946	124	-0.010509925130755
42	191217	125	0.0082357382588114
41	1118	16	0.8998435852996
41	1330	17	1.4932594718638
41	1542	18	2.1459321668318
41	1754	19	2.7396721829514
41	1966	20	3.305833254833
41	2304	21	3.9261971722397
41	2650	22	4.5514320112525
41	2996	23	5.1332642775814
41	3342	24	5.697950061573
41	3688	25	6.3287024063471
41	4119	26	6.9111057204793
41	4558	27	7.5818432810663
41	5005	28	8.2199960114288
41	5452	29	8.8121543826762
41	5899	30	9.3960087757132
41	6443	31	10.014601080478
41	6995	32	10.52535478108
41	7547	33	11.057694104411
41	8107	34	11.689444409604
41	8776	35	12.322121115266
41	9453	36	12.853564183474
41	10138	37	13.467399030313
41	10831	38	14.047936336728
41	11532	39	14.642495099357
41	12354	40	15.255296712196
41	13192	41	15.885286097493
41	14030	42	16.498403223971
41	14876	43	16.654869287321
41	15730	44	16.642755406601
41	16709	45	16.667268289607
41	17704	46	16.653108953852
41	18715	47	16.66630942598
41	19726	48	16.645081267348
41	20745	49	16.632717730915
41	21893	50	16.6358946406
41	23049	51	16.662313070036
41	24221	52	16.635372935832
41	25409	53	16.660068937484
41	26589	54	16.660511677498
41	27902	55	15.104878664473
41	29313	56	11.659305504686
41	30658	57	8.4822331845919
41	32971	58	5.6217730555389
41	34316	59	3.3153456198905
41	36962	60	1.6531639794009
41	38436	61	0.68144043909825
41	40095	62	0.44346990055405
41	41593	63	5.4359919819071e-10
41	43083	64	0
41	44650	65	0
41	46241	66	0
41	47856	67	0
41	49471	68	0
41	51207	69	0
41	52854	70	0
41	54533	71	0
41	56164	72	0
41	57795	73	0
41	59563	74	0
41	61355	75	0
41	63180	76	0
41	64931	77	0
41	66674	78	0
41	68546	79	0
41	70458	80	0
41	72394	81	0
41	74330	82	0
41	76258	83	0.66740201848245
41	78343	84	1.2847931172063
41	80460	85	1.9170210565364
41	82569	86	2.5819385508464
41	84630	87	3.110036749264
41	86683	88	3.7540608961152
41	88889	89	4.2785100998932
41	91127	90	4.8301696067506
41	93373	91	5.4646134037075
41	95611	92	6.0913721931742
41	97873	93	6.6583450556097
41	100215	94	7.2602139162009
41	102573	95	7.8621551580557
41	104939	96	8.4491613792924
41	107297	97	8.9938879128655
41	109671	98	9.5709606631489
41	112210	99	10.208758207422
41	114773	100	10.920619576184
41	117352	101	11.562026899403
41	119923	102	12.199844652919
41	122647	103	12.795788094524
41	125395	104	13.43719810012
41	128175	105	14.089848084647
41	130947	106	14.738755214328
41	133711	107	15.372747400461
41	136648	108	15.940626484735
41	139594	109	16.525297243252
41	142571	110	16.65446851627
41	145548	111	16.639630550677
41	148525	112	16.651977538634
41	151631	113	16.644502662467
41	154761	114	16.646560537005
41	157899	115	16.634750497052
41	161037	116	16.631196271488
41	164167	117	16.660793536799
41	167462	118	16.631021084068
41	170725	119	16.631550168786
41	173972	120	16.630660179509
41	177163	121	16.668747072304
41	180314	122	16.646039261213
41	183706	123	16.648716792483
41	186946	124	16.638206867352
41	191217	125	16.646442605611
40	914	15	30.174066172292
40	1118	16	30.174066172292
40	1330	17	30.820510414426
40	1542	18	32.038768535174
40	1754	19	33.909586645497
40	1966	20	36.378462929749
40	2304	21	39.409996683339
40	2650	22	43.060553314885
40	2996	23	47.326393990283
40	3342	24	52.216640687028
40	3688	25	57.659405514311
40	4119	26	63.711621777528
40	4558	27	70.361442236669
40	5005	28	77.648786048082
40	5452	29	85.593666511069
40	5899	30	94.137508983593
40	6443	31	103.27923026133
40	6995	32	113.02871212253
40	7547	33	123.33266545269
40	8107	34	134.16085094792
40	8776	35	145.55358121264
40	9453	36	157.58767408671
40	10138	37	170.20924967229
40	10831	38	183.38604847953
40	11532	39	197.19423921276
40	12354	40	211.55992288497
40	13192	41	226.52864781352
40	14030	42	242.14054225743
40	14876	43	258.34374137771
40	15730	44	274.97816825054
40	16709	45	291.62494695077
40	17704	46	308.27607911061
40	18715	47	324.92655863275
40	19726	48	341.57767323389
40	20745	49	358.22292616591
40	21893	50	374.87111721663
40	23049	51	391.51848881899
40	24221	52	408.16928908007
40	25409	53	424.81825506012
40	26589	54	441.47115507599
40	27902	55	458.1151078787
40	29313	56	474.35370692428
40	30658	57	487.54764877808
40	32971	58	497.43103089072
40	34316	59	504.30012221337
40	36962	60	508.59661694779
40	38436	61	510.92338957462
40	40095	62	511.98950048525
40	41593	63	512.47133441352
40	43083	64	512.649
40	44650	65	512.649
40	46241	66	512.649
40	47856	67	512.649
40	49471	68	512.649
40	51207	69	512.649
40	52854	70	512.649
40	54533	71	512.649
40	56164	72	512.649
40	57795	73	512.649
40	59563	74	512.649
40	61355	75	512.649
40	63180	76	512.649
40	64931	77	512.649
40	66674	78	512.649
40	68546	79	512.649
40	70458	80	512.649
40	72394	81	512.649
40	74330	82	512.649
40	76258	83	512.649
40	78343	84	513.03484340028
40	80460	85	514.03381189602
40	82569	86	515.66845827477
40	84630	87	517.94513881994
40	86683	88	520.75381553768
40	88889	89	523.24083856857
40	91127	90	523.35
40	93373	91	523.35
40	95611	92	523.35
40	97873	93	523.35
40	100215	94	523.35
40	102573	95	523.35
40	104939	96	523.35
40	107297	97	523.35
40	109671	98	523.35
40	112210	99	523.35
40	114773	100	523.35
40	117352	101	523.35
40	119923	102	523.35
40	122647	103	523.35
40	125395	104	523.35
40	128175	105	523.35
40	130947	106	523.35
40	133711	107	523.35
40	136648	108	523.35
40	139594	109	523.35
40	142571	110	523.35
40	145548	111	523.35
40	148525	112	523.35
40	151631	113	523.35
40	154761	114	523.35
40	157899	115	523.35
40	161037	116	523.35
40	164167	117	523.35
40	167462	118	523.35
40	170725	119	523.35
40	173972	120	523.35
40	177163	121	523.35
40	180314	122	523.35
40	183706	123	523.35
40	186946	124	523.35
40	191217	125	523.35
39	914	15	513.45
39	1118	16	513.45
39	1330	17	513.45
39	1542	18	513.45
39	1754	19	513.45
39	1966	20	513.45
39	2304	21	513.45
39	2650	22	513.45
39	2996	23	513.45
39	3342	24	513.45
39	3688	25	513.45
39	4119	26	513.45
39	4558	27	513.45
39	5005	28	513.45
39	5452	29	513.45
39	5899	30	513.45
39	6443	31	513.45
39	6995	32	513.45
39	7547	33	513.45
39	8107	34	513.45
39	8776	35	513.45
39	9453	36	513.45
39	10138	37	513.45
39	10831	38	513.45
39	11532	39	513.45
39	12354	40	513.45
39	13192	41	513.45
39	14030	42	513.45
39	14876	43	513.45
39	15730	44	513.45
39	16709	45	513.45
39	17704	46	513.45
39	18715	47	513.45
39	19726	48	513.45
39	20745	49	513.45
39	21893	50	513.45
39	23049	51	513.45
39	24221	52	513.45
39	25409	53	513.45
39	26589	54	513.45
39	27902	55	513.45
39	29313	56	513.45
39	30658	57	513.45
39	32971	58	513.45
39	34316	59	513.45
39	36962	60	513.45
39	38436	61	513.45
39	40095	62	513.45
39	41593	63	513.45
39	43083	64	513.45
39	44650	65	513.45
39	46241	66	513.45
39	47856	67	513.45
39	49471	68	513.45
39	51207	69	513.45
39	52854	70	513.45
39	54533	71	513.45
39	56164	72	513.45
39	57795	73	513.45
39	59563	74	513.45
39	61355	75	513.45
39	63180	76	513.45
39	64931	77	513.45
39	66674	78	513.45
39	68546	79	513.45
39	70458	80	513.45
39	72394	81	513.45
39	74330	82	513.45
39	76258	83	513.45
39	78343	84	513.45
39	80460	85	513.43280088202
39	82569	86	513.35955021882
39	84630	87	513.24929871587
39	86683	88	512.70419369499
39	88889	89	510.59337630613
39	91127	90	506.56784096643
39	93373	91	501.98692242371
39	95611	92	496.80889024917
39	97873	93	490.98101307741
39	100215	94	484.5802779164
39	102573	95	477.5854836502
39	104939	96	469.98321480153
39	107297	97	461.80536795999
39	109671	98	453.0735090162
39	112210	99	443.73488729577
39	114773	100	433.8101793794
39	117352	101	423.21505586741
39	119923	102	411.94715041163
39	122647	103	400.03636784445
39	125395	104	387.49555772348
39	128175	105	374.33489034919
39	130947	106	360.55989257102
39	133711	107	346.10814202508
39	136648	108	331.03187683987
39	139594	109	315.32924720363
39	142571	110	299.06805950554
39	145548	111	282.42387344317
39	148525	112	265.77569634166
39	151631	113	249.12539501261
39	154761	114	232.48168250995
39	157899	115	215.82561315439
39	161037	116	199.17731317866
39	164167	117	182.52535601667
39	167462	118	165.87402483917
39	170725	119	149.22706654855
39	173972	120	132.57534910777
39	177163	121	115.9265519163
39	180314	122	99.271042705157
39	183706	123	82.613431246236
39	186946	124	65.958267993082
39	191217	125	49.310242110037
15	199	7	1.3491722881599
15	247	8	1.5001566897532
15	295	9	1.6341980161639
15	364	10	1.7476210249273
15	474	11	1.8501004792595
15	584	12	1.8839025102843
15	694	13	2.0514143595227
15	804	14	2.1976708994898
15	914	15	2.3609730229393
15	1118	16	2.4218455706424
15	1330	17	2.5445043565389
15	1542	18	2.613121569983
15	1754	19	2.645280871402
15	1966	20	2.9186765685558
15	2304	21	2.9766681924186
15	2650	22	3.4868154737945
15	2996	23	3.1586847781274
15	3342	24	3.4543086593548
15	3688	25	3.52647468931
15	4119	26	3.574701215097
15	4558	27	3.6353281669752
15	5005	28	4.1737970794309
15	5452	29	4.1055427263807
15	5899	30	4.1133815078402
15	6443	31	4.6454316680268
15	6995	32	4.5600655092177
15	7547	33	4.3202011379912
15	8107	34	2.4029374894947
15	8776	35	2.3849291169581
15	9453	36	2.3390720546235
15	10138	37	2.3069828453629
15	10831	38	2.3529089217502
15	11532	39	2.240682272751
15	12354	40	2.3516881843992
15	13192	41	2.3527360415256
15	14030	42	2.3810406784812
15	14876	43	2.3658413290032
15	15730	44	2.2912489297104
15	16709	45	0.973
15	17704	46	0.973
15	18715	47	0.973
15	19726	48	0.973
15	20745	49	0.973
15	21893	50	0.973
15	23049	51	0.973
15	24221	52	0.973
15	25409	53	0.973
15	26589	54	0.973
15	27902	55	0.973
15	29313	56	0.973
15	30658	57	0.973
15	32971	58	0.973
15	34316	59	0.973
15	36962	60	0.973
15	38436	61	0.973
15	40095	62	0.973
15	41593	63	0.973
15	43083	64	0.973
15	44650	65	0.973
15	46241	66	0.973
15	47856	67	0.973
15	49471	68	0.973
15	51207	69	0.973
15	52854	70	0.973
15	54533	71	0.973
15	56164	72	0.973
15	57795	73	0.973
15	59563	74	0.973
15	61355	75	0.973
15	63180	76	0.973
15	64931	77	0.973
15	66674	78	0.973
15	68546	79	0.973
15	70458	80	0.973
15	72394	81	0.973
15	74330	82	0.973
15	76258	83	1.2650161951298
15	78343	84	1.3732497756118
15	80460	85	1.4805707757762
15	82569	86	1.5799778087237
15	84630	87	1.6742410254864
15	86683	88	1.7799796304974
15	88889	89	1.9705695114404
15	91127	90	1.9704839885999
15	93373	91	2.132074588322
15	95611	92	2.3276353867591
15	97873	93	2.4575623201381
15	100215	94	2.4615298867113
15	102573	95	2.5937367489572
15	104939	96	2.7727242450764
15	107297	97	2.8896460890976
15	109671	98	2.9633148438262
15	112210	99	3.0680401428184
15	114773	100	3.4741357550723
15	117352	101	3.3564752230196
15	119923	102	3.7577533964768
15	122647	103	3.6925023720276
15	125395	104	4.152475032747
15	128175	105	3.9197089269221
15	130947	106	4.1540764923975
15	133711	107	4.4289537974975
15	136648	108	4.1397641677603
15	139594	109	4.6370930453375
15	142571	110	4.2648463350459
15	145548	111	2.3517070270416
15	148525	112	2.2759453130133
15	151631	113	2.3018514645115
15	154761	114	2.3693478055252
15	157899	115	2.4193268012969
15	161037	116	2.2333548889459
15	164167	117	2.4188087042147
15	167462	118	2.2621602617969
15	170725	119	2.3473391520875
15	173972	120	2.3549692028599
15	177163	121	2.3006851277658
15	180314	122	2.4372177917799
15	183706	123	2.2831071842626
15	186946	124	2.3097973738155
15	191217	125	2.3600023171914
15	194362	126	2.4341181474957
14	199	7	0.57255064928336
14	247	8	0.64011281826533
14	295	9	0.64438289067708
14	364	10	0.6246751594916
14	474	11	0.60335263532586
14	584	12	0.53425769766793
14	694	13	0.58528579257429
14	804	14	0.6056104979571
14	914	15	0.62932322379202
14	1118	16	0.59000389989466
14	1330	17	0.59112245679833
14	1542	18	0.56571349922568
14	1754	19	0.52868682688102
14	1966	20	0.60009046399966
14	2304	21	0.57156448845752
14	2650	22	0.71538035663776
14	2996	23	0.5381136331521
14	3342	24	0.59913039615378
14	3688	25	0.57799962691963
14	4119	26	0.55211291166954
14	4558	27	0.53300437068567
14	5005	28	0.65084338463843
14	5452	29	0.58700330404565
14	5899	30	0.55098420253955
14	6443	31	0.65037156431005
14	6995	32	0.586987563828
14	7547	33	0.49456723360883
14	8107	34	0.015793997999282
14	8776	35	0.010957163032142
14	9453	36	-0.00044961487874318
14	10138	37	-0.0081904862634836
14	10831	38	0.0031544854119439
14	11532	39	-0.024089581361043
14	12354	40	0.0034961086697898
14	13192	41	0.0036431475821885
14	14030	42	0.010372149934991
14	14876	43	0.0063825573306531
14	15730	44	-0.011840644776822
14	16709	45	-1.819361043228
14	17704	46	-3.2570785453447
14	18715	47	-2.7231497394895
14	19726	48	-0.83316104184084
14	20745	49	-2.7824925178117
14	21893	50	-2.2427605483552
14	23049	51	-1.5213304444438
14	24221	52	-0.87982556949485
14	25409	53	-0.1341871685217
14	26589	54	-0.44983617716168
14	27902	55	-7.662396511946e-12
14	29313	56	0
14	30658	57	0
14	32971	58	0
14	34316	59	0
14	36962	60	0
14	38436	61	0
14	40095	62	0
14	41593	63	0
14	43083	64	0
14	44650	65	0
14	46241	66	0
14	47856	67	0
14	49471	68	0
14	51207	69	0
14	52854	70	0
14	54533	71	0
14	56164	72	0
14	57795	73	0
14	59563	74	0
14	61355	75	0
14	63180	76	0
14	64931	77	0
14	66674	78	0
14	68546	79	0
14	70458	80	0
14	72394	81	0
14	74330	82	0
14	76258	83	0.70806381705499
14	78343	84	0.62101897399359
14	80460	85	0.59681354652159
14	82569	86	0.57667732352391
14	84630	87	0.56056703510694
14	86683	88	0.56172248356976
14	88889	89	0.63177355750464
14	91127	90	0.53601802206598
14	93373	91	0.5783773610834
14	95611	92	0.62821528626606
14	97873	93	0.62686899949797
14	100215	94	0.56038985351101
14	102573	95	0.57045484402217
14	104939	96	0.59876538568176
14	107297	97	0.59421100148
14	109671	98	0.57264048155397
14	112210	99	0.56613957381807
14	114773	100	0.66748897391372
14	117352	101	0.57338639019989
14	119923	102	0.66098666593433
14	122647	103	0.59087044898421
14	125395	104	0.68405066598207
14	128175	105	0.56917287009768
14	130947	106	0.59534756689333
14	133711	107	0.62752272765152
14	136648	108	0.51422306684777
14	139594	109	0.60428169690072
14	142571	110	0.47946500824063
14	145548	111	0.0027593432832482
14	148525	112	-0.01563944792375
14	151631	113	-0.0089077162183813
14	154761	114	0.0076864871103339
14	157899	115	0.019516710452734
14	161037	116	-0.026029321430251
14	164167	117	0.019595753606406
14	167462	118	-0.01886607563123
14	170725	119	0.0023076149914409
14	173972	120	0.0040822551026949
14	177163	121	-0.0091717797983435
14	180314	122	0.024102220004423
14	183706	123	-0.013867444973439
14	186946	124	-0.0069980681221899
14	191217	125	0.0053554195631271
14	194362	126	0.02308344011195
13	151	6	0.71072196453838
13	199	7	1.2832726138217
13	247	8	1.9233854320871
13	295	9	2.5677683227642
13	364	10	3.1924434822558
13	474	11	3.7957961175816
13	584	12	4.3300538152496
13	694	13	4.9153396078238
13	804	14	5.5209501057809
13	914	15	6.150273329573
13	1118	16	6.7402772294676
13	1330	17	7.3313996862659
13	1542	18	7.8971131854916
13	1754	19	8.4258000123726
13	1966	20	9.0258904763723
13	2304	21	9.5974549648298
13	2650	22	10.312835321468
13	2996	23	10.85094895462
13	3342	24	11.450079350773
13	3688	25	12.028078977693
13	4119	26	12.580191889363
13	4558	27	13.113196260048
13	5005	28	13.764039644687
13	5452	29	14.351042948732
13	5899	30	14.902027151272
13	6443	31	15.552398715582
13	6995	32	16.13938627941
13	7547	33	16.633953513019
13	8107	34	16.649747511018
13	8776	35	16.66070467405
13	9453	36	16.660255059171
13	10138	37	16.652064572908
13	10831	38	16.65521905832
13	11532	39	16.631129476959
13	12354	40	16.634625585629
13	13192	41	16.638268733211
13	14030	42	16.648640883146
13	14876	43	16.655023440477
13	15730	44	16.6431827957
13	16709	45	14.823821752472
13	17704	46	11.566743207127
13	18715	47	8.8435934676375
13	19726	48	8.0104324257966
13	20745	49	5.2279399079849
13	21893	50	2.9851793596297
13	23049	51	1.4638489151859
13	24221	52	0.58402334569104
13	25409	53	0.44983617716935
13	26589	54	7.662396511946e-12
13	27902	55	0
13	29313	56	0
13	30658	57	0
13	32971	58	0
13	34316	59	0
13	36962	60	0
13	38436	61	0
13	40095	62	0
13	41593	63	0
13	43083	64	0
13	44650	65	0
13	46241	66	0
13	47856	67	0
13	49471	68	0
13	51207	69	0
13	52854	70	0
13	54533	71	0
13	56164	72	0
13	57795	73	0
13	59563	74	0
13	61355	75	0
13	63180	76	0
13	64931	77	0
13	66674	78	0
13	68546	79	0
13	70458	80	0
13	72394	81	0
13	74330	82	0
13	76258	83	0.70806381705499
13	78343	84	1.3290827910486
13	80460	85	1.9258963375702
13	82569	86	2.5025736610941
13	84630	87	3.063140696201
13	86683	88	3.6248631797708
13	88889	89	4.2566367372754
13	91127	90	4.7926547593414
13	93373	91	5.3710321204248
13	95611	92	5.9992474066909
13	97873	93	6.6261164061888
13	100215	94	7.1865062596998
13	102573	95	7.756961103722
13	104939	96	8.3557264894038
13	107297	97	8.9499374908838
13	109671	98	9.5225779724377
13	112210	99	10.088717546256
13	114773	100	10.75620652017
13	117352	101	11.329592910369
13	119923	102	11.990579576304
13	122647	103	12.581450025288
13	125395	104	13.26550069127
13	128175	105	13.834673561368
13	130947	106	14.430021128261
13	133711	107	15.057543855913
13	136648	108	15.57176692276
13	139594	109	16.176048619661
13	142571	110	16.655513627902
13	145548	111	16.658272971185
13	148525	112	16.642633523261
13	151631	113	16.633725807043
13	154761	114	16.641412294153
13	157899	115	16.660929004606
13	161037	116	16.634899683176
13	164167	117	16.654495436782
13	167462	118	16.635629361151
13	170725	119	16.637936976142
13	173972	120	16.642019231245
13	177163	121	16.632847451447
13	180314	122	16.656949671451
13	183706	123	16.643082226478
13	186946	124	16.636084158355
13	191217	125	16.641439577919
13	194362	126	16.66452301803
12	103	5	30.1
12	151	6	30.1
12	199	7	30.49840148381
12	247	8	31.514435469091
12	295	9	33.149688190641
12	364	10	35.429734275571
12	474	11	38.330961834586
12	584	12	41.860907365713
12	694	13	45.961789317538
12	804	14	50.630669819915
12	914	15	55.903274850001
12	1118	16	61.773955475291
12	1330	17	68.250489381309
12	1542	18	75.315307193951
12	1754	19	82.965568603025
12	1966	20	91.14817563303
12	2304	21	99.906749784386
12	2650	22	109.25141222683
12	2996	23	119.23807713162
12	3342	24	129.84430930289
12	3688	25	141.01484865901
12	4119	26	152.77082538984
12	4558	27	165.11292068982
12	5005	28	177.98540253463
12	5452	29	191.4542380646
12	5899	30	205.54753784281
12	6443	31	220.20137144891
12	6995	32	235.46111682972
12	7547	33	251.32520928724
12	8107	34	267.79579870907
12	8776	35	284.44653669695
12	9453	36	301.09795394643
12	10138	37	317.75317360262
12	10831	38	334.40045890157
12	11532	39	351.05057264123
12	12354	40	367.70089779331
12	13192	41	384.3473659345
12	14030	42	400.99430147785
12	14876	43	417.64522680947
12	15730	44	434.29353734048
12	16709	45	450.94204598733
12	17704	46	466.99533623033
12	18715	47	480.00462750844
12	19726	48	489.88568341184
12	20745	49	498.70381249628
12	21893	50	505.12841686333
12	23049	51	509.07724895092
12	24221	52	511.16106924684
12	25409	53	512.08529579778
12	26589	54	512.54205041632
12	27902	55	512.649
12	29313	56	512.649
12	30658	57	512.649
12	32971	58	512.649
12	34316	59	512.649
12	36962	60	512.649
12	38436	61	512.649
12	40095	62	512.649
12	41593	63	512.649
12	43083	64	512.649
12	44650	65	512.649
12	46241	66	512.649
12	47856	67	512.649
12	49471	68	512.649
12	51207	69	512.649
12	52854	70	512.649
12	54533	71	512.649
12	56164	72	512.649
12	57795	73	512.649
12	59563	74	512.649
12	61355	75	512.649
12	63180	76	512.649
12	64931	77	512.649
12	66674	78	512.649
12	68546	79	512.649
12	70458	80	512.649
12	72394	81	512.649
12	74330	82	512.649
12	76258	83	512.649
12	78343	84	513.05115183946
12	80460	85	514.10006244621
12	82569	86	515.73907956994
12	84630	87	517.95490398695
12	86683	88	520.6197520041
12	88889	89	523.80192007455
12	91127	90	527.68287302244
12	93373	91	532.23600930335
12	95611	92	537.35254396866
12	97873	93	543.0645361397
12	100215	94	549.40344673255
12	102573	95	556.34614585585
12	104939	96	563.82461787881
12	107297	97	571.92915691907
12	109671	98	580.6204138107
12	112210	99	589.87781286131
12	114773	100	599.7056733809
12	117352	101	610.14443839392
12	119923	102	621.2231135194
12	122647	103	632.91071326054
12	125395	104	645.23166049179
12	128175	105	658.19885781655
12	130947	106	671.78657645734
12	133711	107	685.94332627377
12	136648	108	700.70853925963
12	139594	109	716.03561688336
12	142571	110	731.94681736362
12	145548	111	748.42823580381
12	148525	112	765.08038562166
12	151631	113	781.72514225335
12	154761	114	798.37565424995
12	157899	115	815.03043943612
12	161037	116	831.68172224409
12	164167	117	848.32845358289
12	167462	118	864.97716251241
12	170725	119	881.62818686563
12	173972	120	898.28591606974
12	177163	121	914.93328007499
12	180314	122	931.57863825701
12	183706	123	948.23310252408
12	186946	124	964.88336574351
12	191217	125	981.53103516992
12	194362	126	998.17932751126
11	103	5	513.45
11	151	6	513.45
11	199	7	513.45
11	247	8	513.45
11	295	9	513.45
11	364	10	513.45
11	474	11	513.45
11	584	12	513.45
11	694	13	513.45
11	804	14	513.45
11	914	15	513.45
11	1118	16	513.45
11	1330	17	513.45
11	1542	18	513.45
11	1754	19	513.45
11	1966	20	513.45
11	2304	21	513.45
11	2650	22	513.45
11	2996	23	513.45
11	3342	24	513.45
11	3688	25	513.45
11	4119	26	513.45
11	4558	27	513.45
11	5005	28	513.45
11	5452	29	513.45
11	5899	30	516.75
11	6443	31	516.75
11	6995	32	516.75
11	7547	33	516.75
11	8107	34	516.75
11	8776	35	516.75
11	9453	36	516.75
11	10138	37	516.75
11	10831	38	516.75
11	11532	39	516.75
11	12354	40	516.75
11	13192	41	516.75
11	14030	42	516.75
11	14876	43	516.75
11	15730	44	516.75
11	16709	45	516.75
11	17704	46	516.75
11	18715	47	516.75
11	19726	48	520.05
11	20745	49	520.05
11	21893	50	520.05
11	23049	51	520.05
11	24221	52	520.05
11	25409	53	520.05
11	26589	54	520.05
11	27902	55	520.05
11	29313	56	520.05
11	30658	57	520.05
11	32971	58	520.05
11	34316	59	520.05
11	36962	60	520.05
11	38436	61	520.05
11	40095	62	520.05
11	41593	63	520.05
11	43083	64	520.05
11	44650	65	520.05
11	46241	66	520.05
11	47856	67	520.05
11	49471	68	520.05
11	51207	69	520.05
11	52854	70	520.05
11	54533	71	520.05
11	56164	72	520.05
11	57795	73	520.05
11	59563	74	520.05
11	61355	75	520.05
11	63180	76	520.05
11	64931	77	520.05
11	66674	78	520.05
11	68546	79	520.05
11	70458	80	520.05
11	72394	81	520.05
11	74330	82	520.05
11	76258	83	520.05
11	78343	84	520.05
11	80460	85	520.09845392796
11	82569	86	520.27491125805
11	84630	87	520.51346792406
11	86683	88	521.3209067592
11	88889	89	522.43763033672
11	91127	90	523.12745216805
11	93373	91	523.35
11	95611	92	523.35
11	97873	93	523.35
11	100215	94	523.35
11	102573	95	523.35
11	104939	96	523.35
11	107297	97	523.35
11	109671	98	523.35
11	112210	99	523.35
11	114773	100	523.35
11	117352	101	523.35
11	119923	102	523.35
11	122647	103	523.35
11	125395	104	523.35
11	128175	105	523.35
11	130947	106	523.35
11	133711	107	523.35
11	136648	108	523.35
11	139594	109	523.35
11	142571	110	523.35
11	145548	111	523.35
11	148525	112	523.35
11	151631	113	523.35
11	154761	114	523.35
11	157899	115	523.35
11	161037	116	523.35
11	164167	117	523.35
11	167462	118	523.35
11	170725	119	523.35
11	173972	120	523.35
11	177163	121	523.35
11	180314	122	523.35
11	183706	123	523.35
11	186946	124	523.35
11	191217	125	523.35
11	194362	126	523.35
vector 207  RSUExampleScenario2.node[29].veinsmobility  posx  ETV
vector 208  RSUExampleScenario2.node[29].veinsmobility  posy  ETV
vector 209  RSUExampleScenario2.node[29].veinsmobility  speed  ETV
57	2650	22	1.4282018230562
57	2996	23	1.5439526423305
57	3342	24	1.6727743659236
57	3688	25	1.7774107282949
57	4119	26	1.9365451045855
57	4558	27	2.051198541074
57	5005	28	2.0186110992412
57	5452	29	2.3054577505976
57	5899	30	2.3566845115351
57	6443	31	2.5773804873459
57	6995	32	2.5511977985196
57	7547	33	2.7129750906611
57	8107	34	2.9040635467275
57	8776	35	2.9833287655844
57	9453	36	3.2561668773338
57	10138	37	3.3432035242644
57	10831	38	3.3652075472145
57	11532	39	3.557222984818
57	12354	40	3.5141261060594
57	13192	41	3.921023174901
57	14030	42	4.1192149194537
57	14876	43	4.1426237190429
57	15730	44	4.1112801897216
57	16709	45	4.4817808608738
57	17704	46	4.8756554570743
57	18715	47	4.4028176864242
57	19726	48	2.3515830666598
57	20745	49	2.44455778896
57	21893	50	2.3482114055631
57	23049	51	2.2666438264602
57	24221	52	2.2560713871946
57	25409	53	2.399789829138
57	26589	54	2.2825699828252
57	27902	55	2.4218615462609
57	29313	56	2.3648039068248
57	30658	57	2.2954825886186
57	32971	58	2.4045694324123
57	34316	59	0.973
57	36962	60	0.973
57	38436	61	0.973
57	40095	62	0.973
57	41593	63	0.973
57	43083	64	0.973
57	44650	65	0.973
57	46241	66	0.973
57	47856	67	0.973
57	49471	68	0.973
57	51207	69	0.973
57	52854	70	0.973
57	54533	71	0.973
57	56164	72	0.973
57	57795	73	0.973
57	59563	74	0.973
57	61355	75	0.973
57	63180	76	0.973
57	64931	77	0.973
57	66674	78	0.973
57	68546	79	0.973
57	70458	80	0.973
57	72394	81	0.973
57	74330	82	0.973
57	76258	83	1.1801247664564
57	78343	84	1.1797190730453
57	80460	85	1.3882514962478
57	82569	86	1.4792425781451
57	84630	87	1.5959814397984
57	86683	88	1.7042920826954
57	88889	89	1.8007441733702
57	91127	90	1.9224135480931
57	93373	91	2.0529593420993
57	95611	92	2.1545350262262
57	97873	93	2.2234615773057
57	100215	94	2.448794804625
57	102573	95	2.4233141733764
57	104939	96	2.7064053952075
57	107297	97	2.7553462538748
57	109671	98	2.9883607190712
57	112210	99	2.9666472291531
57	114773	100	3.1278604358497
57	117352	101	3.2770768027511
57	119923	102	3.5400329875959
57	122647	103	3.6562688235884
57	125395	104	3.57403546442
57	128175	105	3.9747963818999
57	130947	106	4.429619389711
57	133711	107	4.3385337557151
57	136648	108	4.3126842254287
57	139594	109	4.3846111803694
57	142571	110	4.4418866660751
57	145548	111	2.5738606032286
57	148525	112	2.448128098843
57	151631	113	2.5428189030167
57	154761	114	2.6601596447658
57	157899	115	2.4189977475174
57	161037	116	2.2812909723989
57	164167	117	2.4904368262309
57	167462	118	2.3999965369938
57	170725	119	2.4343549499343
57	173972	120	2.2457541526362
57	177163	121	2.5117186544398
57	180314	122	2.2316794915538
57	183706	123	2.4389366913635
57	186946	124	2.3612610885872
57	191217	125	2.4294127469769
57	194362	126	2.3269272263
57	198770	127	2.3217398528456
57	201801	128	2.3765305445505
56	2650	22	0.6264116648864
56	2996	23	0.61321435757913
56	3342	24	0.62177438605577
56	3688	25	0.60210197121836
56	4119	26	0.63637312681414
56	4558	27	0.62364112168551
56	5005	28	0.5136147849448
56	5452	29	0.63584055315703
56	5899	30	0.5884302000422
56	6443	31	0.6416142115742
56	6995	32	0.56094820206985
56	7547	33	0.58346791416407
56	8107	34	0.61305641126819
56	8776	35	0.59094776565209
56	9453	36	0.6456659146864
56	10138	37	0.62293955001049
56	10831	38	0.58142468840815
56	11532	39	0.60116098048166
56	12354	40	0.54420080469921
56	13192	41	0.62876689353958
56	14030	42	0.64045150019229
56	14876	43	0.6023266018834
56	15730	44	0.5544697923027
56	16709	45	0.61350742986426
56	17704	46	0.66919470533728
56	18715	47	0.51483514734575
56	19726	48	0.0032178778294458
56	20745	49	0.025561842070893
56	21893	50	0.0015295988135051
56	23049	51	-0.01822600075975
56	24221	52	-0.020254333298656
56	25409	53	0.015117274094376
56	26589	54	-0.013686539726333
56	27902	55	0.02040143644437
56	29313	56	0.0059955647215268
56	30658	57	-0.010937076825648
56	32971	58	0.015745723787695
56	34316	59	-1.9562071353555
56	36962	60	-3.4111385043177
56	38436	61	-2.4237877511803
56	40095	62	-1.2340342625167
56	41593	63	-2.6855755609331
56	43083	64	-2.1641473576014
56	44650	65	-1.4563843351767
56	46241	66	-0.79374035431247
56	47856	67	-0.10451096658178
56	49471	68	-0.43438168371795
56	51207	69	0
56	52854	70	0
56	54533	71	0
56	56164	72	0
56	57795	73	0
56	59563	74	0
56	61355	75	0
56	63180	76	0
56	64931	77	0
56	66674	78	0
56	68546	79	0
56	70458	80	0
56	72394	81	0
56	74330	82	0
56	76258	83	0.44851172161521
56	78343	84	0.22755897987818
56	80460	85	0.66200598251147
56	82569	86	0.59215762771666
56	84630	87	0.59571132249578
56	86683	88	0.58801587280977
56	88889	89	0.57217623305833
56	91127	90	0.58255497041158
56	93373	91	0.59520221366547
56	95611	92	0.58402198933996
56	97873	93	0.55559662073851
56	100215	94	0.62152104113251
56	102573	95	0.54064337279648
56	104939	96	0.62663859980181
56	107297	97	0.58761980663985
56	109671	98	0.63341376012191
56	112210	99	0.56864112808369
56	114773	100	0.58384812486358
56	117352	101	0.59138302681968
56	119923	102	0.63516091625207
56	122647	103	0.62375795009546
56	125395	104	0.55273415608332
56	128175	105	0.63340607178397
56	130947	106	0.71529555895366
56	133711	107	0.63891724690795
56	136648	108	0.58931722174398
56	139594	109	0.56975796885444
56	142571	110	0.5484892823453
56	145548	111	0.069452181128714
56	148525	112	0.036302072217229
56	151631	113	0.058282824963221
56	154761	114	0.084837723127396
56	157899	115	0.023474148183642
56	161037	116	-0.010752261848236
56	164167	117	0.040403683439642
56	167462	118	0.017197096478586
56	170725	119	0.02497792562173
56	173972	120	-0.021500439257593
56	177163	121	0.043560747538436
56	180314	122	-0.02555475863582
56	183706	123	0.025405989332498
56	186946	124	0.0058410967966545
56	191217	125	0.02212030430956
56	194362	126	-0.0033055029330846
56	198770	127	-0.004460079117262
56	201801	128	0.0089115102775388
55	2304	21	0.96906186467935
55	2650	22	1.5954735295658
55	2996	23	2.2086878871449
55	3342	24	2.8304622732006
55	3688	25	3.432564244419
55	4119	26	4.0689373712332
55	4558	27	4.6925784929187
55	5005	28	5.2061932778635
55	5452	29	5.8420338310205
55	5899	30	6.4304640310627
55	6443	31	7.0720782426369
55	6995	32	7.6330264447067
55	7547	33	8.2164943588708
55	8107	34	8.829550770139
55	8776	35	9.4204985357911
55	9453	36	10.066164450477
55	10138	37	10.689104000488
55	10831	38	11.270528688896
55	11532	39	11.871689669378
55	12354	40	12.415890474077
55	13192	41	13.044657367617
55	14030	42	13.685108867809
55	14876	43	14.287435469692
55	15730	44	14.841905261995
55	16709	45	15.455412691859
55	17704	46	16.124607397197
55	18715	47	16.639442544542
55	19726	48	16.642660422372
55	20745	49	16.668222264443
55	21893	50	16.669751863256
55	23049	51	16.651525862496
55	24221	52	16.631271529198
55	25409	53	16.646388803292
55	26589	54	16.632702263566
55	27902	55	16.65310370001
55	29313	56	16.659099264732
55	30658	57	16.648162187906
55	32971	58	16.663907911694
55	34316	59	14.707700776338
55	36962	60	11.29656227202
55	38436	61	8.8727745208402
55	40095	62	7.6387402583235
55	41593	63	4.9531646973904
55	43083	64	2.7890173397889
55	44650	65	1.3326330046122
55	46241	66	0.53889265029972
55	47856	67	0.43438168371795
55	49471	68	0
55	51207	69	0
55	52854	70	0
55	54533	71	0
55	56164	72	0
55	57795	73	0
55	59563	74	0
55	61355	75	0
55	63180	76	0
55	64931	77	0
55	66674	78	0
55	68546	79	0
55	70458	80	0
55	72394	81	0
55	74330	82	0
55	76258	83	0.44851172161521
55	78343	84	0.67607070149339
55	80460	85	1.3380766840049
55	82569	86	1.9302343117215
55	84630	87	2.5259456342173
55	86683	88	3.1139615070271
55	88889	89	3.6861377400854
55	91127	90	4.268692710497
55	93373	91	4.8638949241625
55	95611	92	5.4479169135024
55	97873	93	6.0035135342409
55	100215	94	6.6250345753734
55	102573	95	7.1656779481699
55	104939	96	7.7923165479717
55	107297	97	8.3799363546116
55	109671	98	9.0133501147335
55	112210	99	9.5819912428172
55	114773	100	10.165839367681
55	117352	101	10.7572223945
55	119923	102	11.392383310753
55	122647	103	12.016141260848
55	125395	104	12.568875416931
55	128175	105	13.202281488715
55	130947	106	13.917577047669
55	133711	107	14.556494294577
55	136648	108	15.145811516321
55	139594	109	15.715569485175
55	142571	110	16.264058767521
55	145548	111	16.333510948649
55	148525	112	16.369813020867
55	151631	113	16.42809584583
55	154761	114	16.512933568957
55	157899	115	16.536407717141
55	161037	116	16.525655455293
55	164167	117	16.566059138732
55	167462	118	16.583256235211
55	170725	119	16.608234160833
55	173972	120	16.586733721575
55	177163	121	16.630294469113
55	180314	122	16.604739710478
55	183706	123	16.63014569981
55	186946	124	16.635986796607
55	191217	125	16.658107100916
55	194362	126	16.654801597983
55	198770	127	16.650341518866
55	201801	128	16.659253029143
54	1966	20	30.211528784673
54	2304	21	30.211528784673
54	2650	22	30.921484295316
54	2996	23	32.251118919298
54	3342	24	34.19063527451
54	3688	25	36.742246873339
54	4119	26	39.894317286058
54	4558	27	43.671923181851
54	5005	28	48.07709006692
54	5452	29	53.044467414429
54	5899	30	58.576894681088
54	6443	31	64.741804056098
54	6995	32	71.504224091671
54	7547	33	78.887464340358
54	8107	34	86.856810145294
54	8776	35	95.40692852425
54	9453	36	104.57068718403
54	10138	37	114.35320507446
54	10831	38	124.7572114289
54	11532	39	135.76231492798
54	12354	40	147.35540059951
54	13192	41	159.53551587519
54	14030	42	172.30436648121
54	14876	43	185.69746068291
54	15730	44	199.7147048088
54	16709	45	214.30591354665
54	17704	46	229.49653582597
54	18715	47	245.32519289094
54	19726	48	261.77551143998
54	20745	49	278.42347969847
54	21893	50	295.07908458833
54	23049	51	311.73305824141
54	24221	52	328.38543866725
54	25409	53	345.03361178221
54	26589	54	361.68261152314
54	27902	55	378.32922196666
54	29313	56	394.97860395692
54	30658	57	411.62923346099
54	32971	58	428.27995938619
54	34316	59	444.93739570084
54	36962	60	460.96058288468
54	38436	61	473.78388171228
54	40095	62	483.42629214466
54	41593	63	492.0730744525
54	43083	64	498.19266994487
54	44650	65	501.89769378563
54	46241	66	503.81014491793
54	47856	67	504.6443593432
54	49471	68	505.09154522329
54	51207	69	505.148
54	52854	70	505.148
54	54533	71	505.148
54	56164	72	505.148
54	57795	73	505.148
54	59563	74	505.148
54	61355	75	505.148
54	63180	76	505.148
54	64931	77	505.148
54	66674	78	505.148
54	68546	79	505.148
54	70458	80	505.148
54	72394	81	505.148
54	74330	82	505.148
54	76258	83	505.148
54	78343	84	505.43779119432
54	80460	85	505.9282447829
54	82569	86	506.96519815844
54	84630	87	508.62569818288
54	86683	88	510.90589442631
54	88889	89	513.75057850519
54	91127	90	517.15394029322
54	93373	91	521.01510791191
54	95611	92	525.37737076117
54	97873	93	530.53545777214
54	100215	94	536.27029047203
54	102573	95	542.62202315422
54	104939	96	549.54125688879
54	107297	97	557.06588855327
54	109671	98	565.18284026585
54	112210	99	573.90213050791
54	114773	100	583.23200484692
54	117352	101	593.13304762926
54	119923	102	603.61995816552
54	122647	103	614.72496949852
54	125395	104	626.44256197438
54	128175	105	638.77268642694
54	130947	106	651.6814125496
54	133711	107	665.27810575352
54	136648	108	679.55446428984
54	139594	109	694.43378572773
54	142571	110	709.91493979727
54	145548	111	725.95592541703
54	148525	112	742.26523656619
54	151631	113	758.62970978853
54	154761	114	775.05077096872
54	157899	115	791.52360620079
54	161037	116	808.02723211464
54	164167	117	824.55368264675
54	167462	118	841.10836750368
54	170725	119	857.68560394344
54	173972	120	874.28690087484
54	177163	121	890.88655889628
54	180314	122	907.49751805978
54	183706	123	924.11528599247
54	186946	124	940.74232767267
54	191217	125	957.37108086054
54	194362	126	973.99744141684
54	198770	127	990.63696757516
54	201801	128	1007.2780696577
53	1966	20	513.45
53	2304	21	513.45
53	2650	22	513.45
53	2996	23	513.45
53	3342	24	513.45
53	3688	25	513.45
53	4119	26	513.45
53	4558	27	513.45
53	5005	28	513.45
53	5452	29	513.45
53	5899	30	513.45
53	6443	31	513.45
53	6995	32	513.45
53	7547	33	513.45
53	8107	34	513.45
53	8776	35	513.45
53	9453	36	513.45
53	10138	37	513.45
53	10831	38	513.45
53	11532	39	513.45
53	12354	40	513.45
53	13192	41	513.45
53	14030	42	513.45
53	14876	43	513.45
53	15730	44	516.75
53	16709	45	516.75
53	17704	46	516.75
53	18715	47	516.75
53	19726	48	516.75
53	20745	49	516.75
53	21893	50	516.75
53	23049	51	516.75
53	24221	52	516.75
53	25409	53	516.75
53	26589	54	516.75
53	27902	55	516.75
53	29313	56	516.75
53	30658	57	516.75
53	32971	58	516.75
53	34316	59	516.75
53	36962	60	516.75
53	38436	61	516.75
53	40095	62	520.05
53	41593	63	520.05
53	43083	64	520.05
53	44650	65	520.05
53	46241	66	520.05
53	47856	67	520.05
53	49471	68	520.05
53	51207	69	520.05
53	52854	70	520.05
53	54533	71	520.05
53	56164	72	520.05
53	57795	73	520.05
53	59563	74	520.05
53	61355	75	520.05
53	63180	76	520.05
53	64931	77	520.05
53	66674	78	520.05
53	68546	79	520.05
53	70458	80	520.05
53	72394	81	520.05
53	74330	82	520.05
53	76258	83	520.05
53	78343	84	520.05
53	80460	85	520.05
53	82569	86	520.05
53	84630	87	520.05
53	86683	88	520.05
53	88889	89	520.06082832768
53	91127	90	520.42723580797
53	93373	91	521.45964967095
53	95611	92	522.87924074447
53	97873	93	523.35
53	100215	94	523.35
53	102573	95	523.35
53	104939	96	523.35
53	107297	97	523.35
53	109671	98	523.35
53	112210	99	523.35
53	114773	100	523.35
53	117352	101	523.35
53	119923	102	523.35
53	122647	103	523.35
53	125395	104	523.35
53	128175	105	523.35
53	130947	106	523.35
53	133711	107	523.35
53	136648	108	523.35
53	139594	109	523.35
53	142571	110	523.35
53	145548	111	523.35
53	148525	112	523.35
53	151631	113	523.35
53	154761	114	523.35
53	157899	115	523.35
53	161037	116	523.35
53	164167	117	523.35
53	167462	118	523.35
53	170725	119	523.35
53	173972	120	523.35
53	177163	121	523.35
53	180314	122	523.35
53	183706	123	523.35
53	186946	124	523.35
53	191217	125	523.35
53	194362	126	523.35
53	198770	127	523.35
53	201801	128	523.35
vector 210  RSUExampleScenario2.node[29].veinsmobility  acceleration  ETV
vector 211  RSUExampleScenario2.node[29].veinsmobility  co2emission  ETV
71	6995	32	1.4488911950604
71	7547	33	1.5547090928054
71	8107	34	1.6537311816748
71	8776	35	1.789602719031
71	9453	36	1.9764011750617
71	10138	37	2.0574176235435
71	10831	38	2.1045604898814
71	11532	39	2.3021254678771
71	12354	40	2.3882755618322
71	13192	41	2.4074596338078
71	14030	42	2.766200647578
71	14876	43	2.5579394272772
[...]
60	43083	64	516.75
60	44650	65	516.75
60	46241	66	516.75
60	47856	67	516.75
60	49471	68	516.75
60	51207	69	516.75
60	52854	70	516.75
60	54533	71	516.75
60	56164	72	516.75
60	57795	73	516.75
60	59563	74	516.75
60	61355	75	516.75
60	63180	76	516.75
60	64931	77	516.75
60	66674	78	516.75
60	68546	79	516.75
60	70458	80	516.75
60	72394	81	516.75
60	74330	82	516.75
60	76258	83	516.75
60	78343	84	516.75
60	80460	85	516.75
60	82569	86	516.75
60	84630	87	516.75
60	86683	88	516.75
60	88889	89	516.75
60	91127	90	516.75
60	93373	91	516.75
60	95611	92	516.75
60	97873	93	516.75
60	100215	94	516.75
60	102573	95	516.75
60	104939	96	516.75
60	107297	97	516.75
60	109671	98	516.75
60	112210	99	516.75
60	114773	100	516.75
60	117352	101	516.75
60	119923	102	516.75
60	122647	103	516.75
60	125395	104	516.75
60	128175	105	516.75
60	130947	106	516.75
60	133711	107	516.75
60	136648	108	516.75
60	139594	109	516.75
60	142571	110	516.75
60	145548	111	520.05
60	148525	112	520.05
60	151631	113	520.05
60	154761	114	520.05
60	157899	115	520.05
60	161037	116	520.05
60	164167	117	520.05
60	167462	118	520.05
60	170725	119	520.05
60	173972	120	520.05
60	177163	121	520.05
60	180314	122	520.05
60	183706	123	520.05
60	186946	124	520.05
60	191217	125	520.05
60	194362	126	520.05
60	198770	127	520.05
60	201801	128	520.05
60	205116	129	520.05
60	208046	130	520.05
60	210847	131	520.05
60	213555	132	520.05
60	216279	133	520.05
60	218898	134	520.05
60	221493	135	520.05
60	224080	136	520.05
60	226691	137	520.05
60	229326	138	520.05
60	231993	139	520.05
60	234660	140	520.05
60	237351	141	520.05
60	240066	142	520.05
60	242712	143	520.05
60	245390	144	520.05
60	248076	145	520.05
60	250770	146	520.05
60	253472	147	520.05
60	256174	148	520.05
60	258876	149	520.05
60	261578	150	520.05
60	264280	151	520.05
60	266982	152	520.05
60	269684	153	520.05
60	272386	154	520.05
60	275088	155	520.05
60	277790	156	520.05
60	280492	157	520.05
60	283195	158	520.05
60	285898	159	520.05
60	288600	160	520.05
60	291302	161	520.05
60	294004	162	520.05
60	296706	163	520.05
60	299408	164	520.05
60	302110	165	520.05
60	304796	166	520.05
60	307434	167	520.09463635202
60	310040	168	520.26943603936
60	312614	169	520.50831332889
60	315180	170	521.3415884296
60	317746	171	522.50394720525
60	320312	172	523.16475211391
60	322878	173	523.35
60	325444	174	523.35
60	327994	175	523.35
60	330455	176	523.35
60	332916	177	523.35
60	335377	178	523.35
60	337838	179	523.35
60	340299	180	523.35
78	9453	36	1.3710504088006
78	10138	37	1.4278091551152
78	10831	38	1.5430059843925
78	11532	39	1.7016795241
78	12354	40	1.7611088780182
78	13192	41	1.8990432957286
78	14030	42	1.9473756875916
78	14876	43	2.1733287424401
78	15730	44	2.1774147447914
78	16709	45	2.3831890576692
78	17704	46	2.4474088866642
78	18715	47	2.7004909463997
78	19726	48	2.7004965070769
78	20745	49	2.8376937538119
78	21893	50	2.9837887043507
78	23049	51	3.1376112168816
78	24221	52	3.2904199351207
78	25409	53	3.3873229332422
78	26589	54	3.6910133169918
78	27902	55	3.6028910803341
78	29313	56	3.7556351104881
78	30658	57	3.9641868415357
78	32971	58	4.2877921210047
78	34316	59	4.2741368700608
78	36962	60	4.4015390000386
78	38436	61	4.6426313037872
78	40095	62	4.6543541115872
78	41593	63	2.3851274577669
78	43083	64	2.3423594941869
78	44650	65	2.3449046854005
78	46241	66	2.2847192530918
78	47856	67	2.3037740427009
78	49471	68	2.4888873113244
78	51207	69	2.23627634164
78	52854	70	2.3938066952108
78	54533	71	2.380433276334
78	56164	72	2.3331399618992
78	57795	73	1.2428786143177
78	59563	74	0.973
78	61355	75	0.973
78	63180	76	0.973
78	64931	77	0.973
78	66674	78	0.973
78	68546	79	0.973
78	70458	80	0.973
78	72394	81	0.973
78	74330	82	0.973
78	76258	83	0.973
78	78343	84	0.973
78	80460	85	0.973
78	82569	86	0.973
78	84630	87	0.973
78	86683	88	0.973
78	88889	89	0.973
78	91127	90	0.973
78	93373	91	0.973
78	95611	92	0.973
78	97873	93	0.973
78	100215	94	1.1460183310483
78	102573	95	1.3016363126486
78	104939	96	1.3961105826959
78	107297	97	1.4764499124539
78	109671	98	1.2499735269319
78	112210	99	0.973
78	114773	100	1.3094950974156
78	117352	101	1.4982076213155
78	119923	102	1.6637050568364
78	122647	103	1.7706844371703
78	125395	104	1.8871153680624
78	128175	105	2.0359762857579
78	130947	106	2.1907308059198
78	133711	107	2.323076730774
78	136648	108	2.414851791754
78	139594	109	0.973
78	142571	110	0.973
78	145548	111	0.973
78	148525	112	0.973
78	151631	113	0.973
78	154761	114	0.973
78	157899	115	0.973
78	161037	116	0.973
78	164167	117	0.973
78	167462	118	0.973
78	170725	119	0.973
78	173972	120	0.973
78	177163	121	0.973
78	180314	122	0.973
78	183706	123	0.973
78	186946	124	0.973
78	191217	125	0.973
78	194362	126	0.973
78	198770	127	0.973
78	201801	128	0.973
78	205116	129	0.973
78	208046	130	0.973
78	210847	131	0.973
78	213555	132	0.973
78	216279	133	0.973
78	218898	134	0.973
78	221493	135	0.973
78	224080	136	0.973
78	226691	137	0.973
78	229326	138	0.973
78	231993	139	0.973
78	234660	140	0.973
78	237351	141	0.973
78	240066	142	0.973
78	242712	143	0.973
78	245390	144	0.973
78	248076	145	0.973
78	250770	146	0.973
78	253472	147	0.973
78	256174	148	0.973
78	258876	149	0.973
78	261578	150	0.973
78	264280	151	0.973
78	266982	152	0.973
78	269684	153	0.973
78	272386	154	0.973
78	275088	155	0.973
78	277790	156	0.973
78	280492	157	0.973
78	283195	158	0.973
78	285898	159	1.2571622156674
78	288600	160	1.3651829925949
78	291302	161	1.4863988766812
78	294004	162	1.5645263060522
78	296706	163	1.6764280513613
78	299408	164	1.8102965013017
78	302110	165	1.9050323734462
78	304796	166	2.0418618008694
78	307434	167	2.1342371004707
78	310040	168	2.463864018297
78	312614	169	2.4235301079713
78	315180	170	2.6295434803898
78	317746	171	2.7373102219258
78	320312	172	2.7912484157218
78	322878	173	2.8097510844713
78	325444	174	3.074538259354
78	327994	175	3.2315347170485
78	330455	176	3.2766575937061
78	332916	177	3.5339491282597
78	335377	178	3.4974989275962
78	337838	179	3.9139439061283
78	340299	180	3.981885183686
77	9453	36	0.61199197837152
77	10138	37	0.5130290124286
77	10831	38	0.54819352763705
77	11532	39	0.612902797563
77	12354	40	0.55377045177855
77	13192	41	0.58334722502157
77	14030	42	0.53418954625726
77	14876	43	0.62160512297414
77	15730	44	0.54459941204637
77	16709	45	0.60327502846718
77	17704	46	0.57156656688079
77	18715	47	0.63911516722292
77	19726	48	0.57539023382589
77	20745	49	0.58313402526081
77	21893	50	0.59224458557554
77	23049	51	0.60184307355434
77	24221	52	0.60857545574196
77	25409	53	0.59430573732592
77	26589	54	0.64871332457289
77	27902	55	0.57241686229594
77	29313	56	0.57849777098745
77	30658	57	0.59884661309421
77	32971	58	0.64665164317004
77	34316	59	0.59887954163365
77	36962	60	0.59233564951457
77	38436	61	0.61344352087937
77	40095	62	0.57746191159821
77	41593	63	0.011276706155986
77	43083	64	0.00060108550824367
77	44650	65	0.0011978455260397
77	46241	66	-0.013391030076892
77	47856	67	-0.0083827353827637
77	49471	68	0.036577173909173
77	51207	69	-0.025548774674537
77	52854	70	0.013300183396787
77	54533	71	0.0096618007216627
77	56164	72	-0.0020491464063532
77	57795	73	-0.26956398638377
77	59563	74	-3.5020559963125
77	61355	75	-3.2966337060359
77	63180	76	-2.9769209388039
77	64931	77	-2.5413957810762
77	66674	78	-1.9169198177374
77	68546	79	-1.1928216401148
77	70458	80	-0.52366612468056
77	72394	81	-0.44410227102445
77	74330	82	-0.00010639147440763
77	76258	83	0
77	78343	84	0
77	80460	85	0
77	82569	86	0
77	84630	87	0
77	86683	88	0
77	88889	89	0
77	91127	90	0
77	93373	91	0
77	95611	92	0
77	97873	93	0
77	100215	94	0.29924142819113
77	102573	95	0.64321540445804
77	104939	96	0.57915778209455
77	107297	97	0.53687655696645
77	109671	98	0.07085697471421
77	112210	99	-0.33991559365802
77	114773	100	0.21191107725255
77	117352	101	0.45366102018638
77	119923	102	0.55871095731817
77	122647	103	0.56168199790691
77	125395	104	0.5709308969602
77	128175	105	0.60060816164129
77	130947	106	0.623747588275
77	133711	107	0.6255043628905
77	136648	108	0.60352572099306
77	139594	109	-4.5
77	142571	110	-2.0997143361904
77	145548	111	0
77	148525	112	0
77	151631	113	0
77	154761	114	0
77	157899	115	0
77	161037	116	0
77	164167	117	0
77	167462	118	0
77	170725	119	0
77	173972	120	0
77	177163	121	0
77	180314	122	0
77	183706	123	0
77	186946	124	0
77	191217	125	0
77	194362	126	0
77	198770	127	0
77	201801	128	0
77	205116	129	0
77	208046	130	0
77	210847	131	0
77	213555	132	0
77	216279	133	0
77	218898	134	0
77	221493	135	0
77	224080	136	0
77	226691	137	0
77	229326	138	0
77	231993	139	0
77	234660	140	0
77	237351	141	0
77	240066	142	0
77	242712	143	0
77	245390	144	0
77	248076	145	0
77	250770	146	0
77	253472	147	0
77	256174	148	0
77	258876	149	0
77	261578	150	0
77	264280	151	0
77	266982	152	0
77	269684	153	0
77	272386	154	0
77	275088	155	0
77	277790	156	0
77	280492	157	0
77	283195	158	0
77	285898	159	0.68765019342599
77	288600	160	0.61317141463517
77	291302	161	0.61405389050022
77	294004	162	0.55965283846483
77	296706	163	0.56861779846251
77	299408	164	0.59374217349105
77	302110	165	0.57606541140005
77	304796	166	0.59516388147138
77	307434	167	0.57779976307414
77	310040	168	0.70752577897161
77	312614	169	0.59728443639353
77	315180	170	0.63940778724849
77	317746	171	0.62444012816995
77	320312	172	0.58844703200273
77	322878	173	0.5443057656847
77	325444	174	0.60487424927764
77	327994	175	0.6133304948546
77	330455	176	0.58028198421001
77	332916	177	0.62299196293578
77	335377	178	0.56450046658516
77	337838	179	0.65204861355014
77	340299	180	0.62417896427214
76	8776	35	0.72061775928676
76	9453	36	1.3326097376583
76	10138	37	1.8456387500869
76	10831	38	2.3938322777239
76	11532	39	3.0067350752869
76	12354	40	3.5605055270655
76	13192	41	4.143852752087
76	14030	42	4.6780422983443
76	14876	43	5.2996474213184
76	15730	44	5.8442468333648
76	16709	45	6.447521861832
76	17704	46	7.0190884287128
76	18715	47	7.6582035959357
76	19726	48	8.2335938297616
76	20745	49	8.8167278550224
76	21893	50	9.4089724405979
76	23049	51	10.010815514152
76	24221	52	10.619390969894
76	25409	53	11.21369670722
76	26589	54	11.862410031793
76	27902	55	12.434826894089
76	29313	56	13.013324665076
76	30658	57	13.612171278171
76	32971	58	14.258822921341
76	34316	59	14.857702462974
76	36962	60	15.450038112489
76	38436	61	16.063481633368
76	40095	62	16.640943544967
76	41593	63	16.652220251122
76	43083	64	16.652821336631
76	44650	65	16.654019182157
76	46241	66	16.64062815208
76	47856	67	16.632245416697
76	49471	68	16.668822590606
76	51207	69	16.643273815932
76	52854	70	16.656573999329
76	54533	71	16.66623580005
76	56164	72	16.664186653644
76	57795	73	16.39462266726
76	59563	74	12.892566670948
76	61355	75	9.5959329649117
76	63180	76	6.6190120261078
76	64931	77	4.0776162450316
76	66674	78	2.1606964272942
76	68546	79	0.96787478717942
76	70458	80	0.44420866249886
76	72394	81	0.00010639147440763
76	74330	82	0
76	76258	83	0
76	78343	84	0
76	80460	85	0
76	82569	86	0
76	84630	87	0
76	86683	88	0
76	88889	89	0
76	91127	90	0
76	93373	91	0
76	95611	92	0
76	97873	93	0
76	100215	94	0.29924142819113
76	102573	95	0.94245683264918
76	104939	96	1.5216146147437
76	107297	97	2.0584911717102
76	109671	98	2.1293481464244
76	112210	99	1.7894325527664
76	114773	100	2.0013436300189
76	117352	101	2.4550046502053
76	119923	102	3.0137156075235
76	122647	103	3.5753976054304
76	125395	104	4.1463285023906
76	128175	105	4.7469366640319
76	130947	106	5.3706842523069
76	133711	107	5.9961886151974
76	136648	108	6.5997143361904
76	139594	109	2.0997143361904
76	142571	110	0
76	145548	111	0
76	148525	112	0
76	151631	113	0
76	154761	114	0
76	157899	115	0
76	161037	116	0
76	164167	117	0
76	167462	118	0
76	170725	119	0
76	173972	120	0
76	177163	121	0
76	180314	122	0
76	183706	123	0
76	186946	124	0
76	191217	125	0
76	194362	126	0
76	198770	127	0
76	201801	128	0
76	205116	129	0
76	208046	130	0
76	210847	131	0
76	213555	132	0
76	216279	133	0
76	218898	134	0
76	221493	135	0
76	224080	136	0
76	226691	137	0
76	229326	138	0
76	231993	139	0
76	234660	140	0
76	237351	141	0
76	240066	142	0
76	242712	143	0
76	245390	144	0
76	248076	145	0
76	250770	146	0
76	253472	147	0
76	256174	148	0
76	258876	149	0
76	261578	150	0
76	264280	151	0
76	266982	152	0
76	269684	153	0
76	272386	154	0
76	275088	155	0
76	277790	156	0
76	280492	157	0
76	283195	158	0
76	285898	159	0.68765019342599
76	288600	160	1.3008216080612
76	291302	161	1.9148754985614
76	294004	162	2.4745283370262
76	296706	163	3.0431461354887
76	299408	164	3.6368883089798
76	302110	165	4.2129537203798
76	304796	166	4.8081176018512
76	307434	167	5.3859173649253
76	310040	168	6.093443143897
76	312614	169	6.6907275802905
76	315180	170	7.330135367539
76	317746	171	7.9545754957089
76	320312	172	8.5430225277117
76	322878	173	9.0873282933964
76	325444	174	9.692202542674
76	327994	175	10.305533037529
76	330455	176	10.885815021739
76	332916	177	11.508806984674
76	335377	178	12.07330745126
76	337838	179	12.72535606481
76	340299	180	13.349535029082
75	8107	34	30.1
75	8776	35	30.1
75	9453	36	30.505302996705
75	10138	37	31.566808379074
75	10831	38	33.183699916415
75	11532	39	35.345059398465
75	12354	40	38.070233836764
75	13192	41	41.368133549677
75	14030	42	45.250379037249
75	14876	43	49.697232033901
75	15730	44	54.72839529276
75	16709	45	60.31539710626
75	17704	46	66.498288216986
75	18715	47	73.266026612931
75	19726	48	80.633211300401
75	20745	49	88.624451761845
75	21893	50	97.171939297544
75	23049	51	106.30940341993
75	24221	52	116.04269470916
75	25409	53	126.39122806085
75	26589	54	137.350091932
75	27902	55	148.91402290374
75	29313	56	161.09240995867
75	30658	57	173.85717978488
75	32971	58	187.20602632217
75	34316	59	201.19193512561
75	36962	60	215.77517845223
75	38436	61	230.93558702494
75	40095	62	246.72691679565
75	41593	63	263.11885098692
75	43083	64	279.76661028319
75	44650	65	296.40809862554
75	46241	66	313.05808076286
75	47856	67	329.70224398291
75	49471	68	346.35557772281
75	51207	69	363.00678926924
75	52854	70	379.6544755335
75	54533	71	396.30167577929
75	56164	72	412.95359689477
75	57795	73	429.60553483894
75	59563	74	446.22789643018
75	61355	75	460.68037336688
75	63180	76	471.73151160732
75	64931	77	479.64656472498
75	66674	78	484.80729048056
75	68546	79	487.76771921528
75	70458	80	489.20567647859
75	72394	81	489.8096407783
75	74330	82	490.14599996698
75	76258	83	490.146
75	78343	84	490.146
75	80460	85	490.146
75	82569	86	490.146
75	84630	87	490.146
75	86683	88	490.146
75	88889	89	490.146
75	91127	90	490.146
75	93373	91	490.146
75	95611	92	490.146
75	97873	93	490.146
75	100215	94	490.146
75	102573	95	490.22220913873
75	104939	96	490.87438704937
75	107297	97	492.13210304091
75	109671	98	493.94744975993
75	112210	99	496.21518309415
75	114773	100	498.10404299853
75	117352	101	499.9790096891
75	119923	102	502.22602094194
75	122647	103	504.98624045254
75	125395	104	508.29584363242
75	128175	105	512.18417832737
75	130947	106	516.65915524583
75	133711	107	521.57178073874
75	136648	108	527.06659373399
75	139594	109	533.39199800858
75	142571	110	537.51671234477
75	145548	111	537.90659807925
75	148525	112	537.90659807925
75	151631	113	537.90659807925
75	154761	114	537.90659807925
75	157899	115	537.90659807925
75	161037	116	537.90659807925
75	164167	117	537.90659807925
75	167462	118	537.90659807925
75	170725	119	537.90659807925
75	173972	120	537.90659807925
75	177163	121	537.90659807925
75	180314	122	537.90659807925
75	183706	123	537.90659807925
75	186946	124	537.90659807925
75	191217	125	537.90659807925
75	194362	126	537.90659807925
75	198770	127	537.90659807925
75	201801	128	537.90659807925
75	205116	129	537.90659807925
75	208046	130	537.90659807925
75	210847	131	537.90659807925
75	213555	132	537.90659807925
75	216279	133	537.90659807925
75	218898	134	537.90659807925
75	221493	135	537.90659807925
75	224080	136	537.90659807925
75	226691	137	537.90659807925
75	229326	138	537.90659807925
75	231993	139	537.90659807925
75	234660	140	537.90659807925
75	237351	141	537.90659807925
75	240066	142	537.90659807925
75	242712	143	537.90659807925
75	245390	144	537.90659807925
75	248076	145	537.90659807925
75	250770	146	537.90659807925
75	253472	147	537.90659807925
75	256174	148	537.90659807925
75	258876	149	537.90659807925
75	261578	150	537.90659807925
75	264280	151	537.90659807925
75	266982	152	537.90659807925
75	269684	153	537.90659807925
75	272386	154	537.90659807925
75	275088	155	537.90659807925
75	277790	156	537.90659807925
75	280492	157	537.90659807925
75	283195	158	537.90659807925
75	285898	159	537.90659807925
75	288600	160	538.30238014772
75	291302	161	539.31973481239
75	294004	162	540.97851283591
75	296706	163	543.19304569284
75	299408	164	545.97185597984
75	302110	165	549.34678674968
75	304796	166	553.29199050905
75	307434	167	557.81746455499
75	310040	168	562.94560352898
75	312614	169	568.72121580456
75	315180	170	575.14734094062
75	317746	171	582.18249001887
75	320312	172	589.85232396294
75	322878	173	598.11952913238
75	325444	174	606.95861617119
75	327994	175	616.37502046794
75	330455	176	626.41384285493
75	332916	177	637.04775712332
75	335377	178	648.27151007926
75	337838	179	660.09351794261
75	340299	180	672.51801324676
74	8107	34	513.45
74	8776	35	513.45
74	9453	36	513.45
74	10138	37	513.45
74	10831	38	513.45
74	11532	39	513.45
74	12354	40	513.45
74	13192	41	513.45
74	14030	42	513.45
74	14876	43	513.45
74	15730	44	513.45
74	16709	45	513.45
74	17704	46	513.45
74	18715	47	513.45
74	19726	48	513.45
74	20745	49	513.45
74	21893	50	513.45
74	23049	51	513.45
74	24221	52	513.45
74	25409	53	513.45
74	26589	54	513.45
74	27902	55	513.45
74	29313	56	513.45
74	30658	57	513.45
74	32971	58	513.45
74	34316	59	516.75
74	36962	60	516.75
74	38436	61	516.75
74	40095	62	516.75
74	41593	63	516.75
74	43083	64	516.75
74	44650	65	516.75
74	46241	66	516.75
74	47856	67	516.75
74	49471	68	516.75
74	51207	69	516.75
74	52854	70	516.75
74	54533	71	516.75
74	56164	72	516.75
74	57795	73	516.75
74	59563	74	516.75
74	61355	75	516.75
74	63180	76	516.75
74	64931	77	516.75
74	66674	78	516.75
74	68546	79	516.75
74	70458	80	516.75
74	72394	81	516.75
74	74330	82	516.75
74	76258	83	516.75
74	78343	84	516.75
74	80460	85	516.75
74	82569	86	516.75
74	84630	87	516.75
74	86683	88	516.75
74	88889	89	516.75
74	91127	90	516.75
74	93373	91	516.75
74	95611	92	516.75
74	97873	93	516.75
74	100215	94	516.75
74	102573	95	520.05
74	104939	96	520.05
74	107297	97	520.05
74	109671	98	520.05
74	112210	99	520.05
74	114773	100	520.05
74	117352	101	520.05
74	119923	102	520.05
74	122647	103	520.05
74	125395	104	520.05
74	128175	105	520.05
74	130947	106	520.3739670244
74	133711	107	521.65500379962
74	136648	108	523.06110325915
74	139594	109	523.35
74	142571	110	523.35
74	145548	111	523.35
74	148525	112	523.35
74	151631	113	523.35
74	154761	114	523.35
74	157899	115	523.35
74	161037	116	523.35
74	164167	117	523.35
74	167462	118	523.35
74	170725	119	523.35
74	173972	120	523.35
74	177163	121	523.35
74	180314	122	523.35
74	183706	123	523.35
74	186946	124	523.35
74	191217	125	523.35
74	194362	126	523.35
74	198770	127	523.35
74	201801	128	523.35
74	205116	129	523.35
74	208046	130	523.35
74	210847	131	523.35
74	213555	132	523.35
74	216279	133	523.35
74	218898	134	523.35
74	221493	135	523.35
74	224080	136	523.35
74	226691	137	523.35
74	229326	138	523.35
74	231993	139	523.35
74	234660	140	523.35
74	237351	141	523.35
74	240066	142	523.35
74	242712	143	523.35
74	245390	144	523.35
74	248076	145	523.35
74	250770	146	523.35
74	253472	147	523.35
74	256174	148	523.35
74	258876	149	523.35
74	261578	150	523.35
74	264280	151	523.35
74	266982	152	523.35
74	269684	153	523.35
74	272386	154	523.35
74	275088	155	523.35
74	277790	156	523.35
74	280492	157	523.35
74	283195	158	523.35
74	285898	159	523.35
74	288600	160	523.35
74	291302	161	523.35
74	294004	162	523.35
74	296706	163	523.35
74	299408	164	523.35
74	302110	165	523.35
74	304796	166	523.35
74	307434	167	523.35
74	310040	168	523.35
74	312614	169	523.35
74	315180	170	523.35
74	317746	171	523.35
74	320312	172	523.35
74	322878	173	523.35
74	325444	174	523.35
74	327994	175	523.35
74	330455	176	523.35
74	332916	177	523.35
74	335377	178	523.35
74	337838	179	523.35
74	340299	180	523.35
