version 2
run General-0-20171118-23:14:00-13370
attr configname General
attr datetime 20171118-23:14:00
attr experiment General
attr inifile omnetpp.ini
attr iterationvars ""
attr iterationvarsf ""
attr measurement ""
attr network RSUExampleScenario2
attr processid 13370
attr repetition 0
attr replication #0
attr resultdir results
attr runnumber 0
attr seedset 0
param **.coreDebug false
param **.debug false
param *.**.nic.mac1609_4.bitrate 6Mbps
param *.**.nic.mac1609_4.txPower 20mW
param *.**.nic.mac1609_4.useServiceChannel false
param *.**.nic.phy80211p.analogueModels "xmldoc(\"config.xml\")"
param *.**.nic.phy80211p.antenna "xmldoc(\"antenna.xml\", \"/root/Antenna[@id='monopole']\")"
param *.**.nic.phy80211p.decider "xmldoc(\"config.xml\")"
param *.**.nic.phy80211p.sensitivity -89dBm
param *.**.nic.phy80211p.thermalNoise -110dBm
param *.**.nic.phy80211p.usePropagationDelay true
param *.**.nic.phy80211p.useThermalNoise true
param *.annotations.draw true
param *.connectionManager.drawMaxIntfDist false
param *.connectionManager.maxInterfDist 2600m
param *.connectionManager.sendDirect true
param *.manager.autoShutdown true
param *.manager.host "\"localhost\""
param *.manager.launchConfig "xmldoc(\"cross.launchd.xml\")"
param *.manager.port 9999
param *.manager.updateInterval 1s
param *.node[*0].veinsmobility.accidentCount 1
param *.node[*0].veinsmobility.accidentDuration 50s
param *.node[*0].veinsmobility.accidentStart 75s
param *.node[*].appl.beaconInterval 1s
param *.node[*].appl.dataOnSch false
param *.node[*].appl.headerLength "80 bit"
param *.node[*].appl.sendBeacons true
param *.node[*].applType "\"TraCIDemo11p\""
param *.node[*].veinsmobility.x 0
param *.node[*].veinsmobility.y 0
param *.node[*].veinsmobility.z 1.895
param *.node[*].veinsmobilityType.debug true
param *.obstacles.debug false
param *.playgroundSizeX 2500m
param *.playgroundSizeY 2500m
param *.playgroundSizeZ 50m
param *.rsu[*].appl.beaconInterval 1s
param *.rsu[*].appl.beaconUserPriority 7
param *.rsu[*].appl.dataOnSch false
param *.rsu[*].appl.dataUserPriority 5
param *.rsu[*].appl.headerLength "80 bit"
param *.rsu[*].appl.sendBeacons true
param *.rsu[*].applType "\"TraCIDemoRSU11p\""
param *.rsu[0].mobility.x 500
param *.rsu[0].mobility.y 500
param *.rsu[0].mobility.z 3

vector 4  RSUExampleScenario2.node[0].veinsmobility  posx  ETV
vector 5  RSUExampleScenario2.node[0].veinsmobility  posy  ETV
vector 6  RSUExampleScenario2.node[0].veinsmobility  speed  ETV
vector 7  RSUExampleScenario2.node[0].veinsmobility  acceleration  ETV
vector 8  RSUExampleScenario2.node[0].veinsmobility  co2emission  ETV
vector 11  RSUExampleScenario2.node[1].veinsmobility  posx  ETV
vector 12  RSUExampleScenario2.node[1].veinsmobility  posy  ETV
vector 13  RSUExampleScenario2.node[1].veinsmobility  speed  ETV
vector 14  RSUExampleScenario2.node[1].veinsmobility  acceleration  ETV
vector 15  RSUExampleScenario2.node[1].veinsmobility  co2emission  ETV
vector 18  RSUExampleScenario2.node[2].veinsmobility  posx  ETV
vector 19  RSUExampleScenario2.node[2].veinsmobility  posy  ETV
vector 25  RSUExampleScenario2.node[3].veinsmobility  posx  ETV
vector 26  RSUExampleScenario2.node[3].veinsmobility  posy  ETV
vector 20  RSUExampleScenario2.node[2].veinsmobility  speed  ETV
vector 21  RSUExampleScenario2.node[2].veinsmobility  acceleration  ETV
vector 22  RSUExampleScenario2.node[2].veinsmobility  co2emission  ETV
vector 27  RSUExampleScenario2.node[3].veinsmobility  speed  ETV
vector 28  RSUExampleScenario2.node[3].veinsmobility  acceleration  ETV
vector 29  RSUExampleScenario2.node[3].veinsmobility  co2emission  ETV
vector 32  RSUExampleScenario2.node[4].veinsmobility  posx  ETV
vector 33  RSUExampleScenario2.node[4].veinsmobility  posy  ETV
vector 34  RSUExampleScenario2.node[4].veinsmobility  speed  ETV
vector 35  RSUExampleScenario2.node[4].veinsmobility  acceleration  ETV
vector 36  RSUExampleScenario2.node[4].veinsmobility  co2emission  ETV
vector 39  RSUExampleScenario2.node[5].veinsmobility  posx  ETV
vector 40  RSUExampleScenario2.node[5].veinsmobility  posy  ETV
vector 41  RSUExampleScenario2.node[5].veinsmobility  speed  ETV
vector 42  RSUExampleScenario2.node[5].veinsmobility  acceleration  ETV
vector 43  RSUExampleScenario2.node[5].veinsmobility  co2emission  ETV
vector 46  RSUExampleScenario2.node[6].veinsmobility  posx  ETV
vector 47  RSUExampleScenario2.node[6].veinsmobility  posy  ETV
vector 48  RSUExampleScenario2.node[6].veinsmobility  speed  ETV
vector 49  RSUExampleScenario2.node[6].veinsmobility  acceleration  ETV
vector 50  RSUExampleScenario2.node[6].veinsmobility  co2emission  ETV
vector 53  RSUExampleScenario2.node[7].veinsmobility  posx  ETV
vector 54  RSUExampleScenario2.node[7].veinsmobility  posy  ETV
vector 55  RSUExampleScenario2.node[7].veinsmobility  speed  ETV
vector 56  RSUExampleScenario2.node[7].veinsmobility  acceleration  ETV
vector 57  RSUExampleScenario2.node[7].veinsmobility  co2emission  ETV
vector 60  RSUExampleScenario2.node[8].veinsmobility  posx  ETV
vector 61  RSUExampleScenario2.node[8].veinsmobility  posy  ETV
vector 62  RSUExampleScenario2.node[8].veinsmobility  speed  ETV
vector 63  RSUExampleScenario2.node[8].veinsmobility  acceleration  ETV
vector 64  RSUExampleScenario2.node[8].veinsmobility  co2emission  ETV
vector 67  RSUExampleScenario2.node[9].veinsmobility  posx  ETV
vector 68  RSUExampleScenario2.node[9].veinsmobility  posy  ETV
vector 69  RSUExampleScenario2.node[9].veinsmobility  speed  ETV
vector 70  RSUExampleScenario2.node[9].veinsmobility  acceleration  ETV
vector 71  RSUExampleScenario2.node[9].veinsmobility  co2emission  ETV
22	474	11	1.4805825283849
22	584	12	1.5485980461789
22	694	13	1.6951406803521
22	804	14	1.7286401767676
22	914	15	1.9481589655214
22	1077	16	2.0407624271157
22	1248	17	2.1862418420573
22	1419	18	2.3049558927732
22	1590	19	2.335228056468
22	1761	20	2.4791317009662
22	1997	21	2.5781108853927
22	2241	22	2.8203381004549
22	2485	23	2.847579377607
22	2729	24	3.1598513072668
22	2973	25	2.9653108967121
22	3294	26	3.3183390699163
22	3623	27	3.6052443494945
22	3960	28	3.6094610729802
22	4297	29	3.8814726476887
22	4634	30	3.6116107615116
22	5060	31	3.9825195201145
22	5494	32	4.2270264455221
22	5928	33	4.4394310925408
22	6362	34	4.192205854046
22	6796	35	4.638988283435
22	7339	36	4.8480116172878
22	7890	37	4.9211859511184
22	8449	38	4.879866186539
22	9008	39	5.117319815229
22	9672	40	5.8614552940281
22	10336	41	5.586534579119
22	11000	42	6.1182181604518
22	11672	43	6.0408345421704
22	12336	44	6.2540514079584
22	13008	45	5.8854388662566
22	13672	46	6.5997517974795
22	14360	47	6.9428844489236
22	15048	48	7.1631027659719
22	15736	49	7.0661543294115
22	16424	50	6.4113381985714
22	17112	51	3.547169597405
22	17808	52	3.7695184198971
22	18512	53	3.9075576627547
22	19216	54	3.76388615954
22	19984	55	3.5593552074006
22	20704	56	3.8617599125696
22	22040	57	3.7512179765592
22	22776	58	3.7505148971535
22	24121	59	3.805350727848
22	24849	60	3.7644849405716
22	25645	61	3.7337573786821
22	26373	62	3.7050879957464
22	27101	63	3.8525658462473
22	27821	64	3.66659813419
22	28525	65	3.7935031552344
22	29205	66	3.7688003625581
22	29885	67	3.6583498589427
22	30565	68	3.7885978192217
21	474	11	0.63549781285226
21	584	12	0.55757485399023
21	694	13	0.60559704351239
21	804	14	0.52351580809802
21	914	15	0.63038351190277
21	1077	16	0.60298368644901
21	1248	17	0.61933622418903
21	1419	18	0.61378844697028
21	1590	19	0.55956467971206
21	1761	20	0.57743163965642
21	1997	21	0.56866938726977
21	2241	22	0.6260532982368
21	2485	23	0.57941806120798
21	2729	24	0.65486895116978
21	2973	25	0.52453575834632
21	3294	26	0.61287029546686
21	3623	27	0.66214418704622
21	3960	28	0.61154820824973
21	4297	29	0.65021432491951
21	4634	30	0.52352673077024
21	5060	31	0.59520870170556
21	5494	32	0.62160947505385
21	5928	33	0.63509086509235
21	6362	34	0.53126544609666
21	6796	35	0.60777107688598
21	7339	36	0.61825432156211
21	7890	37	0.59614392276852
21	8449	38	0.55105104156768
21	9008	39	0.56951230749486
21	9672	40	0.68841617370023
21	10336	41	0.59102788906543
21	11000	42	0.65864506194366
21	11672	43	0.60446554950437
21	12336	44	0.6080635562632
21	13008	45	0.50776174805126
21	13672	46	0.60398049866779
21	14360	47	0.62696221179327
21	15048	48	0.62661791475488
21	15736	49	0.57501709504982
21	16424	50	0.44024128133479
21	17112	51	-0.03396946724504
21	17808	52	0.0028813723847243
21	18512	53	0.02488305891864
21	19216	54	0.00099314826540819
21	19984	55	-0.031834989953786
21	20704	56	0.01776890039444
21	22040	57	-0.00057264525443301
21	22776	58	-0.00066502616740749
21	24121	59	0.0081425646413109
21	24849	60	0.0013079301826657
21	25645	61	-0.0036607121210537
21	26373	62	-0.008126374538989
21	27101	63	0.015785146430137
21	27821	64	-0.014565105130899
21	28525	65	0.0062850750796493
21	29205	66	0.0021047269739221
21	29885	67	-0.015672483267263
21	30565	68	0.0057589910831304
20	364	10	1.2017359573857
20	474	11	1.837233770238
20	584	12	2.3948086242282
20	694	13	3.0004056677406
20	804	14	3.5239214758386
20	914	15	4.1543049877414
20	1077	16	4.7572886741904
20	1248	17	5.3766248983794
20	1419	18	5.9904133453497
20	1590	19	6.5499780250618
20	1761	20	7.1274096647182
20	1997	21	7.6960790519879
20	2241	22	8.3221323502248
20	2485	23	8.9015504114327
20	2729	24	9.5564193626025
20	2973	25	10.080955120949
20	3294	26	10.693825416416
20	3623	27	11.355969603462
20	3960	28	11.967517811712
20	4297	29	12.617732136631
20	4634	30	13.141258867401
20	5060	31	13.736467569107
20	5494	32	14.358077044161
20	5928	33	14.993167909253
20	6362	34	15.52443335535
20	6796	35	16.132204432236
20	7339	36	16.750458753798
20	7890	37	17.346602676566
20	8449	38	17.897653718134
20	9008	39	18.467166025629
20	9672	40	19.155582199329
20	10336	41	19.746610088395
20	11000	42	20.405255150338
20	11672	43	21.009720699843
20	12336	44	21.617784256106
20	13008	45	22.125546004157
20	13672	46	22.729526502825
20	14360	47	23.356488714618
20	15048	48	23.983106629373
20	15736	49	24.558123724423
20	16424	50	24.998365005758
20	17112	51	24.964395538513
20	17808	52	24.967276910897
20	18512	53	24.992159969816
20	19216	54	24.993153118081
20	19984	55	24.961318128128
20	20704	56	24.979087028522
20	22040	57	24.978514383268
20	22776	58	24.9778493571
20	24121	59	24.985991921742
20	24849	60	24.987299851924
20	25645	61	24.983639139803
20	26373	62	24.975512765264
20	27101	63	24.991297911694
20	27821	64	24.976732806563
20	28525	65	24.983017881643
20	29205	66	24.985122608617
20	29885	67	24.96945012535
20	30565	68	24.975209116433
19	295	9	516.75
19	364	10	516.75
19	474	11	516.75
19	584	12	516.75
19	694	13	516.75
19	804	14	516.75
19	914	15	516.75
19	1077	16	516.75
19	1248	17	516.75
19	1419	18	516.75
19	1590	19	516.75
19	1761	20	516.75
19	1997	21	516.75
19	2241	22	516.75
19	2485	23	516.75
19	2729	24	516.75
19	2973	25	520.05
19	3294	26	520.05
19	3623	27	520.05
19	3960	28	520.05
19	4297	29	520.05
19	4634	30	520.05
19	5060	31	520.05
19	5494	32	520.05
19	5928	33	520.05
19	6362	34	523.35
19	6796	35	523.35
19	7339	36	523.35
19	7890	37	523.35
19	8449	38	523.35
19	9008	39	523.35
19	9672	40	523.35
19	10336	41	523.35
19	11000	42	523.35
19	11672	43	523.35
19	12336	44	523.35
19	13008	45	523.35
19	13672	46	523.35
19	14360	47	523.35
19	15048	48	523.35
19	15736	49	523.35
19	16424	50	531.89769440045
19	17112	51	556.75464276325
19	17808	52	581.72819410315
19	18512	53	606.70711397397
19	19216	54	631.68467657001
19	19984	55	656.66635526301
19	20704	56	681.63934166704
19	22040	57	706.61911109729
19	22776	58	731.59975179645
19	24121	59	756.57886534318
19	24849	60	781.56107871071
19	25645	61	806.5390213534
19	26373	62	831.52125172865
19	27101	63	856.50456062215
19	27821	64	881.4845434222
19	28525	65	906.46006088948
19	29205	66	931.43642108161
19	29885	67	956.42007756703
19	30565	68	981.40006159375
18	295	9	1014.5726307437
18	364	10	1014.5726307437
18	474	11	1013.6294592171
18	584	12	1012.077388231
18	694	13	1009.9372551362
18	804	14	1007.1999595949
18	914	15	1003.9258445591
18	1077	16	1000.0509909676
18	1248	17	995.55750140046
18	1419	18	990.46074518285
18	1590	19	984.7555910579
18	1761	20	978.44369230078
18	1997	21	971.56985612797
18	2241	22	964.13566473811
18	2485	23	956.08998162904
18	2729	24	947.45000781793
18	2973	25	938.17250561678
18	3294	26	928.33139012784
18	3623	27	917.91857502052
18	3960	28	906.86016329201
18	4297	29	895.17120666032
18	4634	30	882.84271046633
18	5060	31	869.94248999926
18	5494	32	856.47207555188
18	5928	33	842.38188635811
18	6362	34	827.68551432257
18	6796	35	812.41841482837
18	7339	36	796.56234342819
18	7890	37	780.09241976554
18	8449	38	763.03633793495
18	9008	39	745.39420817633
18	9672	40	727.17735454388
18	10336	41	708.34197817822
18	11000	42	688.85471682818
18	11672	43	668.72999572663
18	12336	44	647.99841080219
18	13008	45	626.64035012047
18	13672	46	604.7381528738
18	14360	47	582.26584900915
18	15048	48	559.1997122065
18	15736	49	535.49913523426
18	16424	50	516.75
18	17112	51	516.75
18	17808	52	516.75
18	18512	53	516.75
18	19216	54	516.75
18	19984	55	516.75
18	20704	56	516.75
18	22040	57	516.75
18	22776	58	516.75
18	24121	59	516.75
18	24849	60	516.75
18	25645	61	516.75
18	26373	62	516.75
18	27101	63	516.75
18	27821	64	516.75
18	28525	65	516.75
18	29205	66	516.75
18	29885	67	516.75
18	30565	68	516.75
36	1248	17	1.3975938010737
36	1419	18	1.5087327880186
36	1590	19	1.6047850509429
36	1761	20	1.703349699085
36	1997	21	1.8916623704537
36	2241	22	2.0048348947623
36	2485	23	2.0852182918262
36	2729	24	2.1773220112645
36	2973	25	2.3244002375318
36	3294	26	2.4933862189221
36	3623	27	2.7149873317709
36	3960	28	2.7639071384643
36	4297	29	2.9300421120366
36	4634	30	2.9602148943258
36	5060	31	3.1237202472034
36	5494	32	3.2880016536711
36	5928	33	3.2678106859382
36	6362	34	3.6254618388544
36	6796	35	3.5915039428286
36	7339	36	3.7945042139719
36	7890	37	3.8283699473892
36	8449	38	4.1957465343265
36	9008	39	4.2655977140561
36	9672	40	4.212528359999
36	10336	41	4.5675739003349
36	11000	42	4.6907925155303
36	11672	43	3.056234600591
36	12336	44	2.2843231033581
36	13008	45	2.321388848354
36	13672	46	2.3512851948847
36	14360	47	2.4084994953063
36	15048	48	2.2346111238313
36	15736	49	2.3287437062956
36	16424	50	2.3620169436716
36	17112	51	2.3030583208034
36	17808	52	2.4705999206325
36	18512	53	2.2088137406876
36	19216	54	2.1348146600847
36	19984	55	0.973
36	20704	56	0.973
36	22040	57	0.973
36	22776	58	0.973
36	24121	59	0.973
36	24849	60	0.973
36	25645	61	0.973
36	26373	62	0.973
36	27101	63	0.973
36	27821	64	0.973
36	28525	65	0.973
36	29205	66	0.973
36	29885	67	0.973
36	30565	68	0.973
36	31245	69	0.973
36	31876	70	0.973
36	32507	71	0.973
36	33138	72	0.973
36	33769	73	0.973
36	34400	74	0.973
36	35031	75	0.973
36	35663	76	0.973
36	36294	77	0.973
36	36925	78	0.973
36	37556	79	0.973
36	38187	80	0.973
36	38818	81	0.973
36	39449	82	0.973
36	40080	83	1.2596731153562
36	40711	84	1.3636653975176
36	41342	85	1.5025934394961
36	41973	86	1.5480097365625
36	42604	87	1.6779212360209
36	43235	88	1.8112980839653
36	43866	89	1.903254609673
36	44497	90	2.0739924778866
36	45128	91	2.170593979339
36	45759	92	2.3663512175718
36	46390	93	2.5078420308157
36	47021	94	2.5444407421351
36	47652	95	2.659375874128
36	48283	96	2.8796667096744
36	48914	97	2.7452698174678
36	49545	98	3.0590629414481
36	50176	99	3.2228920123947
36	50807	100	3.4533618349157
36	51438	101	3.4358722022382
36	52069	102	3.493574975339
36	52700	103	3.7765617450963
36	53331	104	3.8586507445757
36	53962	105	4.0522911813456
36	54593	106	4.0471326006273
36	55224	107	4.2808964869499
36	55855	108	4.342456994743
36	56486	109	4.614954704139
36	57117	110	4.1850171024271
36	57748	111	2.4126256369765
36	58371	112	2.3236740733601
36	58970	113	2.364429790247
36	59569	114	2.3028030756155
36	60160	115	2.2420728367141
36	60743	116	2.4501961416342
36	61326	117	2.3255888073342
36	61901	118	2.3088232668507
36	62468	119	2.4130652253749
36	63019	120	2.1980259811012
36	63546	121	2.3718456325922
36	64073	122	2.305336561083
36	64584	123	2.3535010639394
36	65087	124	2.4086280208272
36	65590	125	2.3869007877719
35	1248	17	0.58883718427271
35	1419	18	0.58687886090949
35	1590	19	0.56745307428762
35	1761	20	0.55938695227727
35	1997	21	0.63458607189357
35	2241	22	0.62093297513202
35	2485	23	0.58837541360408
35	2729	24	0.57271558167413
35	2973	25	0.59320472255349
35	3294	26	0.61936278226785
35	3623	27	0.6640375725925
35	3960	28	0.61798908482306
35	4297	29	0.63174206668511
35	4634	30	0.58699675696902
35	5060	31	0.60113861156628
35	5494	32	0.61220506101847
35	5928	33	0.55720837229863
35	6362	34	0.63442255231552
35	6796	35	0.57621713244356
35	7339	36	0.59703185973689
35	7890	37	0.56562017576769
35	8449	38	0.62961186320521
35	9008	39	0.60535043716431
35	9672	40	0.55246665619314
35	10336	41	0.60582459763624
35	11000	42	0.5967522721365
35	11672	43	0.17791643417847
35	12336	44	-0.013846010565761
35	13008	45	-0.0044719351548679
35	13672	46	0.0028889780212182
35	14360	47	0.016612117746845
35	15048	48	-0.0259109528549
35	15736	49	-0.0023665805999187
35	16424	50	0.0057497196085734
35	17112	51	-0.0086820276640367
35	17808	52	0.032044501816856
35	18512	53	-0.032184312446041
35	19216	54	-0.04925493658039
35	19984	55	-1.3617448570861
35	20704	56	-3.4638130178371
35	22040	57	-3.2025692331911
35	22776	58	-2.8345333866765
35	24121	59	-2.3547884437951
35	24849	60	-1.7001395962517
35	25645	61	-0.95353677473491
35	26373	62	-0.27042720635519
35	27101	63	-0.44523815422289
35	27821	64	-1.8547955332079e-09
35	28525	65	0
35	29205	66	0
35	29885	67	0
35	30565	68	0
35	31245	69	0
35	31876	70	0
35	32507	71	0
35	33138	72	0
35	33769	73	0
35	34400	74	0
35	35031	75	0
35	35663	76	0
35	36294	77	0
35	36925	78	0
35	37556	79	0
35	38187	80	0
35	38818	81	0
35	39449	82	0
35	40080	83	0.69423346146811
35	40711	84	0.60766205231622
35	41342	85	0.63809550078586
35	41973	86	0.53255105337128
35	42604	87	0.57064362192527
35	43235	88	0.59466953149065
35	43866	89	0.57443893859163
35	44497	90	0.61884338824078
35	45128	91	0.59897592282854
35	45759	92	0.64394446746446
35	46390	93	0.64568030063994
35	47021	94	0.59323546032421
35	47652	95	0.58943885996007
35	48283	96	0.63228502897545
35	48914	97	0.51796337367967
35	49545	98	0.60179166279733
35	50176	99	0.61328060063533
35	50807	100	0.645191400107
35	51438	101	0.58825478699989
35	52069	102	0.56379479250871
35	52700	103	0.61111151942983
35	53331	104	0.5919536741823
35	53962	105	0.60601463768631
35	54593	106	0.56403448110446
35	55224	107	0.58885510844178
35	55855	108	0.56676041774452
35	56486	109	0.59756866346113
35	57117	110	0.45983609342183
35	57748	111	0.017597082350402
35	58371	112	-0.0044095403794202
35	58970	113	0.0055632296297681
35	59569	114	-0.0094863281026463
35	60160	115	-0.023901466969402
35	60743	116	0.027117405822501
35	61326	117	-0.0037935160193605
35	61901	118	-0.0077318645920599
35	62468	119	0.017673266651109
35	63019	120	-0.034841574933377
35	63546	121	0.0082542827632253
35	64073	122	-0.0080795814003771
35	64584	123	0.0038145944848651
35	65087	124	0.01701410870999
35	65590	125	0.011243146220224
34	1077	16	0.9219469850749
34	1248	17	1.5107841693476
34	1419	18	2.0976630302571
34	1590	19	2.6651161045447
34	1761	20	3.224503056822
34	1997	21	3.8590891287156
34	2241	22	4.4800221038476
34	2485	23	5.0683975174517
34	2729	24	5.6411130991258
34	2973	25	6.2343178216793
34	3294	26	6.8536806039471
34	3623	27	7.5177181765396
34	3960	28	8.1357072613627
34	4297	29	8.7674493280478
34	4634	30	9.3544460850168
34	5060	31	9.9555846965831
34	5494	32	10.567789757602
34	5928	33	11.1249981299
34	6362	34	11.759420682216
34	6796	35	12.335637814659
34	7339	36	12.932669674396
34	7890	37	13.498289850164
34	8449	38	14.127901713369
34	9008	39	14.733252150533
34	9672	40	15.285718806727
34	10336	41	15.891543404363
34	11000	42	16.488295676499
34	11672	43	16.666212110678
34	12336	44	16.652366100112
34	13008	45	16.647894164957
34	13672	46	16.650783142978
34	14360	47	16.667395260725
34	15048	48	16.64148430787
34	15736	49	16.63911772727
34	16424	50	16.644867446879
34	17112	51	16.636185419215
34	17808	52	16.668229921032
34	18512	53	16.636045608586
34	19216	54	16.586790672005
34	19984	55	15.225045814919
34	20704	56	11.761232797082
34	22040	57	8.558663563891
34	22776	58	5.7241301772145
34	24121	59	3.3693417334194
34	24849	60	1.6692021371678
34	25645	61	0.71566536243287
34	26373	62	0.44523815607768
34	27101	63	1.8547955332079e-09
34	27821	64	0
34	28525	65	0
34	29205	66	0
34	29885	67	0
34	30565	68	0
34	31245	69	0
34	31876	70	0
34	32507	71	0
34	33138	72	0
34	33769	73	0
34	34400	74	0
34	35031	75	0
34	35663	76	0
34	36294	77	0
34	36925	78	0
34	37556	79	0
34	38187	80	0
34	38818	81	0
34	39449	82	0
34	40080	83	0.69423346146811
34	40711	84	1.3018955137843
34	41342	85	1.9399910145702
34	41973	86	2.4725420679415
34	42604	87	3.0431856898667
34	43235	88	3.6378552213574
34	43866	89	4.212294159949
34	44497	90	4.8311375481898
34	45128	91	5.4301134710184
34	45759	92	6.0740579384828
34	46390	93	6.7197382391228
34	47021	94	7.312973699447
34	47652	95	7.902412559407
34	48283	96	8.5346975883825
34	48914	97	9.0526609620622
34	49545	98	9.6544526248595
34	50176	99	10.267733225495
34	50807	100	10.912924625602
34	51438	101	11.501179412602
34	52069	102	12.06497420511
34	52700	103	12.67608572454
34	53331	104	13.268039398723
34	53962	105	13.874054036409
34	54593	106	14.438088517513
34	55224	107	15.026943625955
34	55855	108	15.5937040437
34	56486	109	16.191272707161
34	57117	110	16.651108800583
34	57748	111	16.668705882933
34	58371	112	16.664296342554
34	58970	113	16.669859572183
34	59569	114	16.660373244081
34	60160	115	16.636471777111
34	60743	116	16.663589182934
34	61326	117	16.659795666914
34	61901	118	16.652063802322
34	62468	119	16.669737068973
34	63019	120	16.63489549404
34	63546	121	16.643149776803
34	64073	122	16.635070195403
34	64584	123	16.638884789888
34	65087	124	16.655898898598
34	65590	125	16.667142044818
33	914	15	30.176258881957
33	1077	16	30.176258881957
33	1248	17	30.830575257592
33	1419	18	32.082259910007
33	1590	19	33.900655107876
33	1761	20	36.310763494809
33	1997	21	39.287921331679
33	2241	22	42.858474132894
33	2485	23	47.054873144695
33	2729	24	51.842096761666
33	2973	25	57.23889618869
33	3294	26	63.205411132997
33	3623	27	69.766913754654
33	3960	28	76.980640822224
33	4297	29	84.831089120116
33	4634	30	93.311160993119
33	5060	31	102.39375948256
33	5494	32	112.07190632103
33	5928	33	122.3615449731
33	6362	34	133.25185548187
33	6796	35	144.7232691162
33	7339	36	156.80699266624
33	7890	37	169.46267792721
33	8449	38	182.71372953299
33	9008	39	196.56643977399
33	9672	40	211.01933729489
33	10336	41	226.056106238
33	11000	42	241.67575984932
33	11672	43	257.88251615062
33	12336	44	274.51389870193
33	13008	45	291.16566523388
33	13672	46	307.81112062626
33	14360	47	324.46124678969
33	15048	48	341.11881816087
33	15736	49	357.76728641742
33	16424	50	374.4144272262
33	17112	51	391.06610612982
33	17808	52	407.70917275379
33	18512	53	424.36251372451
33	19216	54	441.01677582094
33	19984	55	457.57241629287
33	20704	56	473.86112222012
33	22040	57	487.16912523657
33	22776	58	497.15392734304
33	24121	59	504.12280933193
33	24849	60	508.49223590847
33	25645	61	510.87333356546
33	26373	62	511.96365982377
33	27101	63	512.45694611264
33	27821	64	512.64899999999
33	28525	65	512.649
33	29205	66	512.649
33	29885	67	512.649
33	30565	68	512.649
33	31245	69	512.649
33	31876	70	512.649
33	32507	71	512.649
33	33138	72	512.649
33	33769	73	512.649
33	34400	74	512.649
33	35031	75	512.649
33	35663	76	512.649
33	36294	77	512.649
33	36925	78	512.649
33	37556	79	512.649
33	38187	80	512.649
33	38818	81	512.649
33	39449	82	512.649
33	40080	83	512.649
33	40711	84	513.0435445736
33	41342	85	514.0891536414
33	41973	86	515.74647295207
33	42604	87	517.97912307212
33	43235	88	520.70159461986
33	43866	89	523.18517471541
33	44497	90	523.35
33	45128	91	523.35
33	45759	92	523.35
33	46390	93	523.35
33	47021	94	523.35
33	47652	95	523.35
33	48283	96	523.35
33	48914	97	523.35
33	49545	98	523.35
33	50176	99	523.35
33	50807	100	523.35
33	51438	101	523.35
33	52069	102	523.35
33	52700	103	523.35
33	53331	104	523.35
33	53962	105	523.35
33	54593	106	523.35
33	55224	107	523.35
33	55855	108	523.35
33	56486	109	523.35
33	57117	110	523.35
33	57748	111	523.35
33	58371	112	523.35
33	58970	113	523.35
33	59569	114	523.35
33	60160	115	523.35
33	60743	116	523.35
33	61326	117	523.35
33	61901	118	523.35
33	62468	119	523.35
33	63019	120	523.35
33	63546	121	523.35
33	64073	122	523.35
33	64584	123	523.35
33	65087	124	523.35
33	65590	125	523.35
32	914	15	513.45
32	1077	16	513.45
32	1248	17	513.45
32	1419	18	513.45
32	1590	19	513.45
32	1761	20	513.45
32	1997	21	513.45
32	2241	22	513.45
32	2485	23	513.45
32	2729	24	513.45
32	2973	25	513.45
32	3294	26	513.45
32	3623	27	513.45
32	3960	28	513.45
32	4297	29	513.45
32	4634	30	513.45
32	5060	31	513.45
32	5494	32	513.45
32	5928	33	513.45
32	6362	34	513.45
32	6796	35	513.45
32	7339	36	513.45
32	7890	37	513.45
32	8449	38	513.45
32	9008	39	513.45
32	9672	40	513.45
32	10336	41	513.45
32	11000	42	513.45
32	11672	43	513.45
32	12336	44	513.45
32	13008	45	513.45
32	13672	46	513.45
32	14360	47	513.45
32	15048	48	513.45
32	15736	49	513.45
32	16424	50	513.45
32	17112	51	513.45
32	17808	52	513.45
32	18512	53	513.45
32	19216	54	513.45
32	19984	55	513.45
32	20704	56	513.45
32	22040	57	513.45
32	22776	58	513.45
32	24121	59	513.45
32	24849	60	513.45
32	25645	61	513.45
32	26373	62	513.45
32	27101	63	513.45
32	27821	64	513.45
32	28525	65	513.45
32	29205	66	513.45
32	29885	67	513.45
32	30565	68	513.45
32	31245	69	513.45
32	31876	70	513.45
32	32507	71	513.45
32	33138	72	513.45
32	33769	73	513.45
32	34400	74	513.45
32	35031	75	513.45
32	35663	76	513.45
32	36294	77	513.45
32	36925	78	513.45
32	37556	79	513.45
32	38187	80	513.45
32	38818	81	513.45
32	39449	82	513.45
32	40080	83	513.45
32	40711	84	513.45
32	41342	85	513.43032094531
32	41973	86	513.35605427809
32	42604	87	513.24270308798
32	43235	88	512.71432867575
32	43866	89	510.71747932301
32	44497	90	506.79199825942
32	45128	91	502.23638150375
32	45759	92	497.07028206522
32	46390	93	491.28949510637
32	47021	94	484.84299355722
32	47652	95	477.80636143785
32	48283	96	470.18974383649
32	48914	97	461.94988652273
32	49545	98	453.12794307257
32	50176	99	443.74797085091
32	50807	100	433.75324843241
32	51438	101	423.12087008714
32	52069	102	411.879800139
32	52700	103	400.07527170377
32	53331	104	387.69020467862
32	53962	105	374.70758570732
32	54593	106	361.09786916464
32	55224	107	346.91708055793
32	55855	108	332.17220707373
32	56486	109	316.84962215319
32	57117	110	300.91578420215
32	57748	111	284.4262650523
32	58371	112	267.77146026371
32	58970	113	251.12198232907
32	59569	114	234.46925423372
32	60160	115	217.82187724601
32	60743	116	201.17522849067
32	61326	117	184.52542121392
32	61901	118	167.87165971424
32	62468	119	151.22337538014
32	63019	120	134.56704353455
32	63546	121	117.91612982174
32	64073	122	101.26988219818
32	64584	123	84.626084825103
32	65087	124	67.975457920498
32	65590	125	51.331491116012
15	199	7	1.3491722881599
15	247	8	1.5001566897532
15	295	9	1.6341980161639
15	364	10	1.7476210249273
15	474	11	1.8501004792595
15	584	12	1.8839025102843
15	694	13	2.0514143595227
15	804	14	2.1976708994898
15	914	15	2.33016098389
15	1077	16	2.3835364315823
15	1248	17	2.5539267460571
15	1419	18	2.6269431194619
15	1590	19	2.6677611010302
15	1761	20	2.9289029861633
15	1997	21	3.0049513828763
15	2241	22	3.2242576514826
15	2485	23	3.3780705498248
15	2729	24	3.4684767401155
15	2973	25	3.5215987275615
15	3294	26	3.736338445517
15	3623	27	3.9707745117414
15	3960	28	3.836810558196
15	4297	29	4.2094140254868
15	4634	30	4.4515601222105
15	5060	31	4.4575435999783
15	5494	32	4.7030860117288
15	5928	33	3.9354269298302
15	6362	34	2.3335761153704
15	6796	35	2.3074969916422
15	7339	36	2.3805766400705
15	7890	37	2.24010724064
15	8449	38	2.4692789122869
15	9008	39	2.2190573259725
15	9672	40	2.4389986906981
15	10336	41	2.2212069882635
15	11000	42	2.4362096429824
15	11672	43	2.3287812577467
15	12336	44	2.2843376920301
15	13008	45	0.973
15	13672	46	0.973
15	14360	47	0.973
15	15048	48	0.973
15	15736	49	0.973
15	16424	50	0.973
15	17112	51	0.973
15	17808	52	0.973
15	18512	53	0.973
15	19216	54	0.973
15	19984	55	0.973
15	20704	56	0.973
15	22040	57	0.973
15	22776	58	0.973
15	24121	59	0.973
15	24849	60	0.973
15	25645	61	0.973
15	26373	62	0.973
15	27101	63	0.973
15	27821	64	0.973
15	28525	65	0.973
15	29205	66	0.973
15	29885	67	0.973
15	30565	68	0.973
15	31245	69	0.973
15	31876	70	0.973
15	32507	71	0.973
15	33138	72	0.973
15	33769	73	0.973
15	34400	74	0.973
15	35031	75	0.973
15	35663	76	0.973
15	36294	77	0.973
15	36925	78	0.973
15	37556	79	0.973
15	38187	80	0.973
15	38818	81	0.973
15	39449	82	0.973
15	40080	83	1.2546558598154
15	40711	84	1.3808842701849
15	41342	85	1.5087420725029
15	41973	86	1.6548637491397
15	42604	87	1.698967501589
15	43235	88	1.8705436393752
15	43866	89	1.9655486632036
15	44497	90	2.1024264248763
15	45128	91	2.1286173689735
15	45759	92	2.2757829856182
15	46390	93	2.4499801017898
15	47021	94	2.5320594775632
15	47652	95	2.7917866935745
15	48283	96	2.6938563349086
15	48914	97	2.9104704851301
15	49545	98	3.1207489393507
15	50176	99	3.1743542615886
15	50807	100	3.370855285001
15	51438	101	3.5538774724747
15	52069	102	3.5427384334289
15	52700	103	3.8257048375801
15	53331	104	3.8578050504263
15	53962	105	4.2796311418953
15	54593	106	4.1945049638957
15	55224	107	4.4228515710888
15	55855	108	4.4095930280658
15	56486	109	4.7436130248225
15	57117	110	3.3153935769249
15	57748	111	2.38649831733
15	58371	112	2.3485195952682
15	58970	113	2.255047092757
15	59569	114	2.3568977919846
15	60160	115	2.4350148689697
15	60743	116	2.211978734557
15	61326	117	2.373344672468
15	61901	118	2.4458934175659
15	62468	119	2.3306445530746
15	63019	120	2.2062711097323
15	63546	121	2.3818082228661
15	64073	122	2.3434872538194
15	64584	123	2.3371240158105
15	65087	124	2.3832947550168
15	65590	125	2.3079366934003
15	66086	126	2.3745346636097
14	199	7	0.57255064928336
14	247	8	0.64011281826533
14	295	9	0.64438289067708
14	364	10	0.6246751594916
14	474	11	0.60335263532586
14	584	12	0.53425769766793
14	694	13	0.58528579257429
14	804	14	0.6056104979571
14	914	15	0.61107154884376
14	1077	16	0.57097320244648
14	1248	17	0.59981501045637
14	1419	18	0.5750410943944
14	1590	19	0.54048575648107
14	1761	20	0.60504189674743
14	1997	21	0.58296865687706
14	2241	22	0.61781577737071
14	2485	23	0.62239395484329
14	2729	24	0.60420758495107
14	2973	25	0.57639000997879
14	3294	26	0.60162414719351
14	3623	27	0.6279008259438
14	3960	28	0.54650857117958
14	4297	29	0.61231786360033
14	4634	30	0.63431402926333
14	5060	31	0.59393496317789
14	5494	32	0.61546130504458
14	5928	33	0.3973396046886
14	6362	34	-0.0016521721985221
14	6796	35	-0.0079068496730166
14	7339	36	0.0099912403803337
14	7890	37	-0.024279940286654
14	8449	38	0.031837532427161
14	9008	39	-0.029597115665673
14	9672	40	0.02446541200392
14	10336	41	-0.028929583011195
14	11000	42	0.023933626590296
14	11672	43	-0.0027465501800172
14	12336	44	-0.013414204427974
14	13008	45	-1.8132568970242
14	13672	46	-3.2892356462406
14	14360	47	-2.8112605315189
14	15048	48	-0.85262187428965
14	15736	49	-2.7694433290939
14	16424	50	-2.2033139393201
14	17112	51	-1.5108250155693
14	17808	52	-0.81219581435571
14	18512	53	-0.14693581693276
14	19216	54	-0.42916844087653
14	19984	55	0
14	20704	56	0
14	22040	57	0
14	22776	58	0
14	24121	59	0
14	24849	60	0
14	25645	61	0
14	26373	62	0
14	27101	63	0
14	27821	64	0
14	28525	65	0
14	29205	66	0
14	29885	67	0
14	30565	68	0
14	31245	69	0
14	31876	70	0
14	32507	71	0
14	33138	72	0
14	33769	73	0
14	34400	74	0
14	35031	75	0
14	35663	76	0
14	36294	77	0
14	36925	78	0
14	37556	79	0
14	38187	80	0
14	38818	81	0
14	39449	82	0
14	40080	83	0.68102348173854
14	40711	84	0.64610262552783
14	41342	85	0.63960916253738
14	41973	86	0.65841694913805
14	42604	87	0.56258052465506
14	43235	88	0.62250651092269
14	43866	89	0.59774214438163
14	44497	90	0.61070350837894
14	45128	91	0.54732311425731
14	45759	92	0.57330430052243
14	46390	93	0.60660494848155
14	47021	94	0.58422420774587
14	47652	95	0.6499016052112
14	48283	96	0.54307052901946
14	48914	97	0.58798474969342
14	49545	98	0.62084645899944
14	50176	99	0.58894906989299
14	50807	100	0.61207626954653
14	51438	101	0.62591660483741
14	52069	102	0.57528957482428
14	52700	103	0.62092109628953
14	53331	104	0.58622170291841
14	53962	105	0.66373904060572
14	54593	106	0.59476752495393
14	55224	107	0.61460682429374
14	55855	108	0.57161349629983
14	56486	109	0.61594450606032
14	57117	110	0.2433921611456
14	57748	111	0.011470667207615
14	58371	112	0.0019488327670842
14	58970	113	-0.020713865598665
14	59569	114	0.0045438427757496
14	60160	115	0.023262055655941
14	60743	116	-0.031350915003568
14	61326	117	0.0086273532640178
14	61901	118	0.025867624841631
14	62468	119	-0.002736110966655
14	63019	120	-0.032745832763609
14	63546	121	0.010702811060472
14	64073	122	0.0011146611347783
14	64584	123	-0.00045733331702635
14	65087	124	0.010711609544234
14	65590	125	-0.0078220895305279
14	66086	126	0.0085075125563883
13	151	6	0.71072196453838
13	199	7	1.2832726138217
13	247	8	1.9233854320871
13	295	9	2.5677683227642
13	364	10	3.1924434822558
13	474	11	3.7957961175816
13	584	12	4.3300538152496
13	694	13	4.9153396078238
13	804	14	5.5209501057809
13	914	15	6.1320216546247
13	1077	16	6.7029948570712
13	1248	17	7.3028098675275
13	1419	18	7.8778509619219
13	1590	19	8.418336718403
13	1761	20	9.0233786151504
13	1997	21	9.6063472720275
13	2241	22	10.224163049398
13	2485	23	10.846557004241
13	2729	24	11.450764589193
13	2973	25	12.027154599171
13	3294	26	12.628778746365
13	3623	27	13.256679572309
13	3960	28	13.803188143488
13	4297	29	14.415506007089
13	4634	30	15.049820036352
13	5060	31	15.64375499953
13	5494	32	16.259216304574
13	5928	33	16.656555909263
13	6362	34	16.654903737064
13	6796	35	16.646996887391
13	7339	36	16.656988127772
13	7890	37	16.632708187485
13	8449	38	16.664545719912
13	9008	39	16.634948604247
13	9672	40	16.659414016251
13	10336	41	16.630484433239
13	11000	42	16.65441805983
13	11672	43	16.65167150965
13	12336	44	16.638257305222
13	13008	45	14.825000408197
13	13672	46	11.535764761957
13	14360	47	8.724504230438
13	15048	48	7.8718823561483
13	15736	49	5.1024390270544
13	16424	50	2.8991250877343
13	17112	51	1.388300072165
13	17808	52	0.57610425780929
13	18512	53	0.42916844087653
13	19216	54	0
13	19984	55	0
13	20704	56	0
13	22040	57	0
13	22776	58	0
13	24121	59	0
13	24849	60	0
13	25645	61	0
13	26373	62	0
13	27101	63	0
13	27821	64	0
13	28525	65	0
13	29205	66	0
13	29885	67	0
13	30565	68	0
13	31245	69	0
13	31876	70	0
13	32507	71	0
13	33138	72	0
13	33769	73	0
13	34400	74	0
13	35031	75	0
13	35663	76	0
13	36294	77	0
13	36925	78	0
13	37556	79	0
13	38187	80	0
13	38818	81	0
13	39449	82	0
13	40080	83	0.68102348173854
13	40711	84	1.3271261072664
13	41342	85	1.9667352698038
13	41973	86	2.6251522189418
13	42604	87	3.1877327435969
13	43235	88	3.8102392545195
13	43866	89	4.4079813989012
13	44497	90	5.0186849072801
13	45128	91	5.5660080215374
13	45759	92	6.1393123220599
13	46390	93	6.7459172705414
13	47021	94	7.3301414782873
13	47652	95	7.9800430834985
13	48283	96	8.5231136125179
13	48914	97	9.1110983622113
13	49545	98	9.7319448212108
13	50176	99	10.320893891104
13	50807	100	10.93297016065
13	51438	101	11.558886765488
13	52069	102	12.134176340312
13	52700	103	12.755097436602
13	53331	104	13.34131913952
13	53962	105	14.005058180126
13	54593	106	14.59982570508
13	55224	107	15.214432529373
13	55855	108	15.786046025673
13	56486	109	16.401990531733
13	57117	110	16.645382692879
13	57748	111	16.656853360087
13	58371	112	16.658802192854
13	58970	113	16.638088327255
13	59569	114	16.642632170031
13	60160	115	16.665894225687
13	60743	116	16.634543310683
13	61326	117	16.643170663947
13	61901	118	16.669038288789
13	62468	119	16.666302177822
13	63019	120	16.633556345059
13	63546	121	16.644259156119
13	64073	122	16.645373817254
13	64584	123	16.644916483937
13	65087	124	16.655628093481
13	65590	125	16.647806003951
13	66086	126	16.656313516507
12	103	5	30.1
12	151	6	30.1
12	199	7	30.49840148381
12	247	8	31.514435469091
12	295	9	33.149688190641
12	364	10	35.429734275571
12	474	11	38.330961834586
12	584	12	41.860907365713
12	694	13	45.961789317538
12	804	14	50.630669819915
12	914	15	55.903274850001
12	1077	16	61.767357428953
12	1248	17	68.208158514006
12	1419	18	75.239730675754
12	1590	19	82.878053974179
12	1761	20	91.042817737022
12	1997	21	99.78736560947
12	2241	22	109.14109970173
12	2485	23	119.08524564551
12	2729	24	129.6759581056
12	2973	25	140.8529232401
12	3294	26	152.61729235592
12	3623	27	164.98615673173
12	3960	28	177.95719165828
12	4297	29	191.51505485045
12	4634	30	205.64867173599
12	5060	31	220.42405502672
12	5494	32	235.80677829324
12	5928	33	251.76214521839
12	6362	34	268.3107446913
12	6796	35	284.96197167928
12	7339	36	301.61570584359
12	7890	37	318.25894508305
12	8449	38	334.9000846614
12	9008	39	351.55379257259
12	9672	40	368.20448653439
12	10336	41	384.86132054075
12	11000	42	401.51056704323
12	11672	43	418.16340402339
12	12336	44	434.80488534143
12	13008	45	451.455167498
12	13672	46	467.54049833977
12	14360	47	480.53864000147
12	15048	48	490.3254562989
12	15736	49	499.01589391414
12	16424	50	505.33782908202
12	17112	51	509.19064759961
12	17808	52	511.21396810138
12	18512	53	512.10193383578
12	19216	54	512.55266181325
12	19984	55	512.649
12	20704	56	512.649
12	22040	57	512.649
12	22776	58	512.649
12	24121	59	512.649
12	24849	60	512.649
12	25645	61	512.649
12	26373	62	512.649
12	27101	63	512.649
12	27821	64	512.649
12	28525	65	512.649
12	29205	66	512.649
12	29885	67	512.649
12	30565	68	512.649
12	31245	69	512.649
12	31876	70	512.649
12	32507	71	512.649
12	33138	72	512.649
12	33769	73	512.649
12	34400	74	512.649
12	35031	75	512.649
12	35663	76	512.649
12	36294	77	512.649
12	36925	78	512.649
12	37556	79	512.649
12	38187	80	512.649
12	38818	81	512.649
12	39449	82	512.649
12	40080	83	512.649
12	40711	84	513.03766073497
12	41342	85	514.06777866423
12	41973	86	515.74223456015
12	42604	87	518.05990797236
12	43235	88	520.85503140368
12	43866	89	524.20481131142
12	44497	90	528.27353069679
12	45128	91	533.01981080594
12	45759	92	538.34738370835
12	46390	93	544.23771184074
12	47021	94	550.71416104304
12	47652	95	557.79168457627
12	48283	96	565.47386033464
12	48914	97	573.7534745083
12	49545	98	582.59940115002
12	50176	99	592.0419141354
12	50807	100	602.10195572046
12	51438	101	612.74941068619
12	52069	102	624.02249153247
12	52700	103	635.90827180095
12	53331	104	648.38518615654
12	53962	105	661.4503525893
12	54593	106	675.15504428387
12	55224	107	689.48994287619
12	55855	108	704.42772247746
12	56486	109	719.94825617144
12	57117	110	736.08520688554
12	57748	111	752.69479507273
12	58371	112	769.34311868245
12	58970	113	785.99510425452
12	59569	114	802.64062030011
12	60160	115	819.29406645233
12	60743	116	835.94839219262
12	61326	117	852.59858088982
12	61901	118	869.24421812603
12	62468	119	885.89653435815
12	63019	120	902.54995616935
12	63546	121	919.205427403
12	64073	122	935.85719011166
12	64584	123	952.50518846353
12	65087	124	969.15675206478
12	65590	125	985.80661529635
12	66086	126	1002.4570115683
11	103	5	513.45
11	151	6	513.45
11	199	7	513.45
11	247	8	513.45
11	295	9	513.45
11	364	10	513.45
11	474	11	513.45
11	584	12	513.45
11	694	13	513.45
11	804	14	513.45
11	914	15	513.45
11	1077	16	513.45
11	1248	17	513.45
11	1419	18	513.45
11	1590	19	513.45
11	1761	20	513.45
11	1997	21	513.45
11	2241	22	513.45
11	2485	23	513.45
11	2729	24	513.45
11	2973	25	513.45
11	3294	26	513.45
11	3623	27	513.45
11	3960	28	513.45
11	4297	29	513.45
11	4634	30	516.75
11	5060	31	516.75
11	5494	32	516.75
11	5928	33	516.75
11	6362	34	516.75
11	6796	35	516.75
11	7339	36	516.75
11	7890	37	516.75
11	8449	38	516.75
11	9008	39	516.75
11	9672	40	516.75
11	10336	41	516.75
11	11000	42	516.75
11	11672	43	516.75
11	12336	44	516.75
11	13008	45	516.75
11	13672	46	516.75
11	14360	47	516.75
11	15048	48	520.05
11	15736	49	520.05
11	16424	50	520.05
11	17112	51	520.05
11	17808	52	520.05
11	18512	53	520.05
11	19216	54	520.05
11	19984	55	520.05
11	20704	56	520.05
11	22040	57	520.05
11	22776	58	520.05
11	24121	59	520.05
11	24849	60	520.05
11	25645	61	520.05
11	26373	62	520.05
11	27101	63	520.05
11	27821	64	520.05
11	28525	65	520.05
11	29205	66	520.05
11	29885	67	520.05
11	30565	68	520.05
11	31245	69	520.05
11	31876	70	520.05
11	32507	71	520.05
11	33138	72	520.05
11	33769	73	520.05
11	34400	74	520.05
11	35031	75	520.05
11	35663	76	520.05
11	36294	77	520.05
11	36925	78	520.05
11	37556	79	520.05
11	38187	80	520.05
11	38818	81	520.05
11	39449	82	520.05
11	40080	83	520.05
11	40711	84	520.05
11	41342	85	520.09497824128
11	41973	86	520.27525092573
11	42604	87	520.52477270096
11	43235	88	521.40347375346
11	43866	89	522.57901763413
11	44497	90	523.1910426423
11	45128	91	523.35
11	45759	92	523.35
11	46390	93	523.35
11	47021	94	523.35
11	47652	95	523.35
11	48283	96	523.35
11	48914	97	523.35
11	49545	98	523.35
11	50176	99	523.35
11	50807	100	523.35
11	51438	101	523.35
11	52069	102	523.35
11	52700	103	523.35
11	53331	104	523.35
11	53962	105	523.35
11	54593	106	523.35
11	55224	107	523.35
11	55855	108	523.35
11	56486	109	523.35
11	57117	110	523.35
11	57748	111	523.35
11	58371	112	523.35
11	58970	113	523.35
11	59569	114	523.35
11	60160	115	523.35
11	60743	116	523.35
11	61326	117	523.35
11	61901	118	523.35
11	62468	119	523.35
11	63019	120	523.35
11	63546	121	523.35
11	64073	122	523.35
11	64584	123	523.35
11	65087	124	523.35
11	65590	125	523.35
11	66086	126	523.35
43	2241	22	1.4171446757695
43	2485	23	1.4895623165025
43	2729	24	1.6707281955534
43	2973	25	1.7639543820579
43	3294	26	1.8583898682233
43	3623	27	1.9630454765596
43	3960	28	2.0967415810718
43	4297	29	2.1977304993547
43	4634	30	2.4575041796728
43	5060	31	2.6270599356912
43	5494	32	2.5731214703862
43	5928	33	2.7821304498342
43	6362	34	2.7957297506834
43	6796	35	3.1272363270172
43	7339	36	3.1798112777214
43	7890	37	3.2832260542273
43	8449	38	3.3292773873306
43	9008	39	3.6616303113429
43	9672	40	3.7944137268873
43	10336	41	3.9601210553342
43	11000	42	3.9255675977248
43	11672	43	3.9063936494956
43	12336	44	4.2670673806814
43	13008	45	4.6978116413668
43	13672	46	4.5481872622971
43	14360	47	4.450973205763
43	15048	48	2.4791601466855
43	15736	49	2.2368273656062
43	16424	50	2.3435874065545
43	17112	51	2.3511961703839
43	17808	52	2.4118774680467
43	18512	53	2.3500567809862
43	19216	54	2.3157616463988
43	19984	55	2.3016156208814
43	20704	56	2.4072017050685
43	22040	57	2.2260862260515
43	22776	58	2.35787815041
43	24121	59	0.973
43	24849	60	0.973
43	25645	61	0.973
43	26373	62	0.973
43	27101	63	0.973
43	27821	64	0.973
43	28525	65	0.973
43	29205	66	0.973
43	29885	67	1.1209119563052
43	30565	68	0.973
43	31245	69	0.973
43	31876	70	0.973
43	32507	71	0.973
43	33138	72	0.973
43	33769	73	0.973
43	34400	74	0.973
43	35031	75	0.973
43	35663	76	0.973
43	36294	77	0.973
43	36925	78	0.973
43	37556	79	0.973
43	38187	80	0.973
43	38818	81	0.973
43	39449	82	0.973
43	40080	83	1.1794628533493
43	40711	84	1.1679662560367
43	41342	85	1.3336569904829
43	41973	86	1.4474802323328
43	42604	87	1.5565021858689
43	43235	88	1.7036604073434
43	43866	89	1.7686255397667
43	44497	90	1.8737413630491
43	45128	91	1.9600714740043
43	45759	92	2.1518490481867
43	46390	93	2.3206855426107
43	47021	94	2.4216602539208
43	47652	95	2.5956569033059
43	48283	96	2.7800186883519
43	48914	97	2.8492672147477
43	49545	98	2.8803921005418
43	50176	99	2.9778852776052
43	50807	100	3.1213150231604
43	51438	101	3.3051117198564
43	52069	102	3.5434883794147
43	52700	103	3.5716501337534
43	53331	104	3.9830737594474
43	53962	105	3.8228510743661
43	54593	106	4.2225184401462
43	55224	107	4.3484072079053
43	55855	108	4.2923302407145
43	56486	109	4.5758779047773
43	57117	110	4.6851537724912
43	57748	111	3.532804178922
43	58371	112	2.2171209986467
43	58970	113	2.4136063390788
43	59569	114	2.3623423949911
43	60160	115	2.227124418316
43	60743	116	2.4838475733427
43	61326	117	2.3268442292887
43	61901	118	2.3130673807243
43	62468	119	2.2788936570758
43	63019	120	2.3839434139466
43	63546	121	2.3688670547474
43	64073	122	2.2348227458073
43	64584	123	2.4559439917921
43	65087	124	2.3084870409056
43	65590	125	2.2502708911391
43	66086	126	2.4333104620483
43	66536	127	2.2372679078345
43	66897	128	2.4699737462412
42	2241	22	0.59317624030635
42	2485	23	0.53442505097948
42	2729	24	0.63551065407693
42	2973	25	0.59969170890749
42	3294	26	0.57933084762655
42	3623	27	0.57382582695223
42	3960	28	0.58992197990418
42	4297	29	0.57966199635528
42	4634	30	0.66342975997366
42	5060	31	0.67554895980284
42	5494	32	0.57528754127212
42	5928	33	0.61711680577137
42	6362	34	0.56560734432191
42	6796	35	0.65179120073095
42	7339	36	0.61473129183054
42	7890	37	0.60199511466548
42	8449	38	0.5712067369651
42	9008	39	0.63769259535708
42	9672	40	0.63086401356384
42	10336	41	0.6339776801411
42	11000	42	0.57951991130598
42	11672	43	0.53614557848312
42	12336	44	0.59750442138873
42	13008	45	0.66700767986477
42	13672	46	0.58640455326996
42	14360	47	0.52743219110349
42	15048	48	0.034303330862894
42	15736	49	-0.02528752790764
42	16424	50	0.001295308871196
42	17112	51	0.0030955404788244
42	17808	52	0.017654652269556
42	18512	53	0.0021899436507375
42	19216	54	-0.0061602532677334
42	19984	55	-0.0093965885415663
42	20704	56	0.016392858754841
42	22040	57	-0.02788319797255
42	22776	58	0.004835862917826
42	24121	59	-1.7815062429562
42	24849	60	-3.4490856498721
42	25645	61	-2.7835226034082
42	26373	62	-0.82698563530449
42	27101	63	-2.7142951495451
42	27821	64	-2.210865350376
42	28525	65	-1.4890227957283
42	29205	66	-0.83789970916142
42	29885	67	-0.099316156682469
42	30565	68	-0.44861972550745
42	31245	69	0
42	31876	70	0
42	32507	71	0
42	33138	72	0
42	33769	73	0
42	34400	74	0
42	35031	75	0
42	35663	76	0
42	36294	77	0
42	36925	78	0
42	37556	79	0
42	38187	80	0
42	38818	81	0
42	39449	82	0
42	40080	83	0.44600327352877
42	40711	84	0.18242279218253
42	41342	85	0.57222591696793
42	41973	86	0.58349095742218
42	42604	87	0.58102079915814
42	43235	88	0.62125621061772
42	43866	89	0.56460530255921
42	44497	90	0.5635465809051
42	45128	91	0.5480066662468
42	45759	92	0.60921095161699
42	46390	93	0.63668711032718
42	47021	94	0.6174959028326
42	47652	95	0.6403586408589
42	48283	96	0.66158053383231
42	48914	97	0.62610120082274
42	49545	98	0.58155195164495
42	50176	99	0.57123623944819
42	50807	100	0.57937849719077
42	51438	101	0.59970977120102
42	52069	102	0.63404060428031
42	52700	103	0.59466160248034
42	53331	104	0.67737940953113
42	53962	105	0.58043437775225
42	54593	106	0.65294932114892
42	55224	107	0.6409969781898
42	55855	108	0.58346407330595
42	56486	109	0.61668723164126
42	57117	110	0.60333577494136
42	57748	111	0.29655862923599
42	58371	112	-0.030119134774431
42	58970	113	0.018297038357705
42	59569	114	0.0053562519699319
42	60160	115	-0.027510307785125
42	60743	116	0.035357392886656
42	61326	117	-0.0036160344909888
42	61901	118	-0.0068362125288708
42	62468	119	-0.014898143773898
42	63019	120	0.010944973919543
42	63546	121	0.0069683521147823
42	64073	122	-0.025656813271343
42	64584	123	0.028560000611467
42	65087	124	-0.0079158737696687
42	65590	125	-0.021769803874196
42	66086	126	0.023137129154058
42	66536	127	-0.024959456408396
42	66897	128	0.032036123489959
41	1997	21	1.0112714035047
41	2241	22	1.6044476438111
41	2485	23	2.1388726947906
41	2729	24	2.7743833488675
41	2973	25	3.374075057775
41	3294	26	3.9534059054015
41	3623	27	4.5272317323538
41	3960	28	5.117153712258
41	4297	29	5.6968157086132
41	4634	30	6.3602454685869
41	5060	31	7.0357944283897
41	5494	32	7.6110819696618
41	5928	33	8.2281987754332
41	6362	34	8.7938061197551
41	6796	35	9.4455973204861
41	7339	36	10.060328612317
41	7890	37	10.662323726982
41	8449	38	11.233530463947
41	9008	39	11.871223059304
41	9672	40	12.502087072868
41	10336	41	13.136064753009
41	11000	42	13.715584664315
41	11672	43	14.251730242798
41	12336	44	14.849234664187
41	13008	45	15.516242344052
41	13672	46	16.102646897322
41	14360	47	16.630079088425
41	15048	48	16.664382419288
41	15736	49	16.639094891381
41	16424	50	16.640390200252
41	17112	51	16.643485740731
41	17808	52	16.661140393
41	18512	53	16.663330336651
41	19216	54	16.657170083383
41	19984	55	16.647773494842
41	20704	56	16.664166353596
41	22040	57	16.636283155624
41	22776	58	16.641119018542
41	24121	59	14.859612775585
41	24849	60	11.410527125713
41	25645	61	8.6270045223051
41	26373	62	7.8000188870007
41	27101	63	5.0857237374556
41	27821	64	2.8748583870796
41	28525	65	1.3858355913513
41	29205	66	0.54793588218992
41	29885	67	0.44861972550745
41	30565	68	0
41	31245	69	0
41	31876	70	0
41	32507	71	0
41	33138	72	0
41	33769	73	0
41	34400	74	0
41	35031	75	0
41	35663	76	0
41	36294	77	0
41	36925	78	0
41	37556	79	0
41	38187	80	0
41	38818	81	0
41	39449	82	0
41	40080	83	0.44600327352877
41	40711	84	0.6284260657113
41	41342	85	1.2006519826792
41	41973	86	1.7841429401014
41	42604	87	2.3651637392596
41	43235	88	2.9864199498773
41	43866	89	3.5510252524365
41	44497	90	4.1145718333416
41	45128	91	4.6625784995884
41	45759	92	5.2717894512054
41	46390	93	5.9084765615326
41	47021	94	6.5259724643652
41	47652	95	7.1663311052241
41	48283	96	7.8279116390564
41	48914	97	8.4540128398791
41	49545	98	9.0355647915241
41	50176	99	9.6068010309722
41	50807	100	10.186179528163
41	51438	101	10.785889299364
41	52069	102	11.419929903644
41	52700	103	12.014591506125
41	53331	104	12.691970915656
41	53962	105	13.272405293408
41	54593	106	13.925354614557
41	55224	107	14.566351592747
41	55855	108	15.149815666053
41	56486	109	15.766502897694
41	57117	110	16.369838672635
41	57748	111	16.666397301871
41	58371	112	16.636278167097
41	58970	113	16.654575205455
41	59569	114	16.659931457425
41	60160	115	16.632421149639
41	60743	116	16.667778542526
41	61326	117	16.664162508035
41	61901	118	16.657326295506
41	62468	119	16.642428151732
41	63019	120	16.653373125652
41	63546	121	16.660341477767
41	64073	122	16.634684664495
41	64584	123	16.663244665107
41	65087	124	16.655328791337
41	65590	125	16.633558987463
41	66086	126	16.656696116617
41	66536	127	16.631736660209
41	66897	128	16.663772783699
40	1761	20	30.214269282166
40	1997	21	30.214269282166
40	2241	22	30.951655741282
40	2485	23	32.287723085309
40	2729	24	34.18047929115
40	2973	25	36.690111166373
40	3294	26	39.803672412044
40	3623	27	43.499489795604
40	3960	28	47.747841859921
40	4297	29	52.591973538795
40	4634	30	58.033304950917
40	5060	31	64.080939625322
40	5494	32	70.826923630646
40	5928	33	78.173768631936
40	6362	34	86.131653417831
40	6796	35	94.675775674854
40	7339	36	103.83169203174
40	7890	37	113.63119987902
40	8449	38	124.01636057561
40	9008	39	135.00809268403
40	9672	40	146.61317684068
40	10336	41	158.82995743533
40	11000	42	171.67182352803
40	11672	43	185.14293393223
40	12336	44	199.14226292564
40	13008	45	213.72549110937
40	13672	46	228.93994117371
40	14360	47	244.7713980344
40	15048	48	261.19683874195
40	15736	49	277.84640826485
40	16424	50	294.49962285143
40	17112	51	311.14948894153
40	17808	52	327.80405252121
40	18512	53	344.46215333143
40	19216	54	361.1106623685
40	19984	55	377.76082717794
40	20704	56	394.41285796617
40	22040	57	411.06582555532
40	22776	58	427.71240367718
40	24121	59	444.36389792921
40	24849	60	460.47098140531
40	25645	61	473.40808291957
40	26373	62	483.08748048216
40	27101	63	491.67479959958
40	27821	64	497.9430794297
40	28525	65	501.75163502793
40	29205	66	503.74010112917
40	29885	67	504.61519024188
40	30565	68	505.06466888266
40	31245	69	505.148
40	31876	70	505.148
40	32507	71	505.148
40	33138	72	505.148
40	33769	73	505.148
40	34400	74	505.148
40	35031	75	505.148
40	35663	76	505.148
40	36294	77	505.148
40	36925	78	505.148
40	37556	79	505.148
40	38187	80	505.148
40	38818	81	505.148
40	39449	82	505.148
40	40080	83	505.148
40	40711	84	505.43189942668
40	41342	85	505.91233434673
40	41973	86	506.86353517374
40	42604	87	508.36639500444
40	43235	88	510.46747005016
40	43866	89	513.18986404345
40	44497	90	516.46812774326
40	45128	91	520.2138518357
40	45759	92	524.37710569859
40	46390	93	529.32316553578
40	47021	94	534.94846761639
40	47652	95	541.20398101082
40	48283	96	548.07946741496
40	48914	97	555.59094617116
40	49545	98	563.76374342048
40	50176	99	572.54230683718
40	50807	100	581.91022030349
40	51438	101	591.83483988514
40	52069	102	602.34221925173
40	52700	103	613.46905357334
40	53331	104	625.19896770487
40	53962	105	637.57941986821
40	54593	106	650.59379139874
40	55224	107	664.22253427548
40	55855	108	678.50819602895
40	56486	109	693.38154741331
40	57117	110	708.86219788161
40	57748	111	724.96472323861
40	58371	112	741.5648769965
40	58970	113	758.21320057778
40	59569	114	774.86610588623
40	60160	115	791.52008743497
40	60743	116	808.16502320561
40	61326	117	824.82010824833
40	61901	118	841.47228446522
40	62468	119	858.12033337151
40	63019	120	874.76868011233
40	63546	121	891.41658973033
40	64073	122	908.06331686428
40	64584	123	924.70830118907
40	65087	124	941.36027462466
40	65590	125	958.01046332307
40	66086	126	974.65765345267
40	66536	127	991.30333482217
40	66897	128	1007.9537798469
39	1761	20	513.45
39	1997	21	513.45
39	2241	22	513.45
39	2485	23	513.45
39	2729	24	513.45
39	2973	25	513.45
39	3294	26	513.45
39	3623	27	513.45
39	3960	28	513.45
39	4297	29	513.45
39	4634	30	513.45
39	5060	31	513.45
39	5494	32	513.45
39	5928	33	513.45
39	6362	34	513.45
39	6796	35	513.45
39	7339	36	513.45
39	7890	37	513.45
39	8449	38	513.45
39	9008	39	513.45
39	9672	40	513.45
39	10336	41	513.45
39	11000	42	513.45
39	11672	43	513.45
39	12336	44	516.75
39	13008	45	516.75
39	13672	46	516.75
39	14360	47	516.75
39	15048	48	516.75
39	15736	49	516.75
39	16424	50	516.75
39	17112	51	516.75
39	17808	52	516.75
39	18512	53	516.75
39	19216	54	516.75
39	19984	55	516.75
39	20704	56	516.75
39	22040	57	516.75
39	22776	58	516.75
39	24121	59	516.75
39	24849	60	516.75
39	25645	61	516.75
39	26373	62	520.05
39	27101	63	520.05
39	27821	64	520.05
39	28525	65	520.05
39	29205	66	520.05
39	29885	67	520.05
39	30565	68	520.05
39	31245	69	520.05
39	31876	70	520.05
39	32507	71	520.05
39	33138	72	520.05
39	33769	73	520.05
39	34400	74	520.05
39	35031	75	520.05
39	35663	76	520.05
39	36294	77	520.05
39	36925	78	520.05
39	37556	79	520.05
39	38187	80	520.05
39	38818	81	520.05
39	39449	82	520.05
39	40080	83	520.05
39	40711	84	520.05
39	41342	85	520.05
39	41973	86	520.05
39	42604	87	520.05
39	43235	88	520.05
39	43866	89	520.05
39	44497	90	520.35340091646
39	45128	91	521.1784635324
39	45759	92	522.63948119236
39	46390	93	523.30404680716
39	47021	94	523.35
39	47652	95	523.35
39	48283	96	523.35
39	48914	97	523.35
39	49545	98	523.35
39	50176	99	523.35
39	50807	100	523.35
39	51438	101	523.35
39	52069	102	523.35
39	52700	103	523.35
39	53331	104	523.35
39	53962	105	523.35
39	54593	106	523.35
39	55224	107	523.35
39	55855	108	523.35
39	56486	109	523.35
39	57117	110	523.35
39	57748	111	523.35
39	58371	112	523.35
39	58970	113	523.35
39	59569	114	523.35
39	60160	115	523.35
39	60743	116	523.35
39	61326	117	523.35
39	61901	118	523.35
39	62468	119	523.35
39	63019	120	523.35
39	63546	121	523.35
39	64073	122	523.35
39	64584	123	523.35
39	65087	124	523.35
39	65590	125	523.35
39	66086	126	523.35
39	66536	127	523.35
39	66897	128	523.35
57	5494	32	1.4415897034974
57	5928	33	1.5325902770179
57	6362	34	1.6178706954688
57	6796	35	1.8305274696739
57	7339	36	1.9316377994426
57	7890	37	1.973131422358
57	8449	38	2.0750226308302
57	9008	39	2.3526472187151
57	9672	40	2.3343718407739
57	10336	41	2.5634010084021
57	11000	42	2.6458859109184
57	11672	43	2.8220649223662
57	12336	44	2.9311674386891
57	13008	45	2.9207210896021
57	13672	46	3.1170603636866
57	14360	47	3.238088943653
57	15048	48	3.5480389409312
57	15736	49	3.5450598328231
57	16424	50	3.7252290311676
57	17112	51	3.814257856903
57	17808	52	4.1128854903612
57	18512	53	4.5024453006073
57	19216	54	4.4120708625025
57	19984	55	4.363403240843
57	20704	56	4.5032396437059
57	22040	57	4.087959500843
57	22776	58	2.3843397003622
57	24121	59	2.3182306002856
57	24849	60	2.3592866183575
57	25645	61	2.3465958513779
57	26373	62	2.284443779817
57	27101	63	2.3409017466412
57	27821	64	2.3589486610979
57	28525	65	2.3282867585984
57	29205	66	2.3977202786291
57	29885	67	2.4242225352107
57	30565	68	0.973
57	31245	69	0.973
57	31876	70	0.973
57	32507	71	0.973
57	33138	72	0.973
57	33769	73	0.973
57	34400	74	0.973
57	35031	75	0.973
57	35663	76	0.973
57	36294	77	0.973
57	36925	78	0.973
57	37556	79	0.973
57	38187	80	0.973
57	38818	81	0.973
57	39449	82	0.973
57	40080	83	1.1781905135281
57	40711	84	1.1311723513237
57	41342	85	1.1556678015807
57	41973	86	1.3127671731863
57	42604	87	1.4363573846974
57	43235	88	1.5406080898723
57	43866	89	1.6383611954656
57	44497	90	1.8552427908724
57	45128	91	1.9044448367519
57	45759	92	2.0715936342547
57	46390	93	2.1035577975094
57	47021	94	2.3400047939888
57	47652	95	2.4139023167175
57	48283	96	2.5708097073259
57	48914	97	2.6626556240718
57	49545	98	2.8364419938526
57	50176	99	2.9841683286203
57	50807	100	2.9843832459217
57	51438	101	3.3124193643668
57	52069	102	3.3456608294078
57	52700	103	3.4758786073834
57	53331	104	3.4674531677675
57	53962	105	3.62088671563
57	54593	106	3.7958039558321
57	55224	107	4.041629973002
57	55855	108	4.0794689566941
57	56486	109	4.1264142491913
57	57117	110	4.3785522133765
57	57748	111	4.7075799729701
57	58371	112	4.5072860955677
57	58970	113	2.2332989234382
57	59569	114	2.3346123580879
57	60160	115	2.3354960407105
57	60743	116	2.4314772662623
57	61326	117	2.3673654242324
57	61901	118	2.3151454479068
57	62468	119	2.3215224275849
57	63019	120	2.3624575776741
57	63546	121	2.3559112004312
57	64073	122	2.1897368814013
57	64584	123	2.403238328171
57	65087	124	2.3152434773254
57	65590	125	2.3557415900051
57	66086	126	2.3235865934916
57	66536	127	2.3206494647258
57	66897	128	2.4178874548285
57	67258	129	2.3404128631373
56	5494	32	0.59129866400734
56	5928	33	0.56117510644719
56	6362	34	0.53963867191225
56	6796	35	0.65211950559169
56	7339	36	0.62258318192325
56	7890	37	0.55841405045241
56	8449	38	0.55566094066016
56	9008	39	0.66229641144164
56	9672	40	0.57049482114613
56	10336	41	0.63122391422279
56	11000	42	0.60535170702264
56	11672	43	0.62695181233808
56	12336	44	0.61481267659925
56	13008	45	0.55672506545671
56	13672	46	0.58704876637087
56	14360	47	0.58423339335248
56	15048	48	0.64527252187952
56	15736	49	0.59429137027822
56	16424	50	0.60717110695317
56	17112	51	0.5904797896836
56	17808	52	0.63459240151569
56	18512	53	0.69538194051013
56	19216	54	0.62306349461899
56	19984	55	0.57022017763928
56	20704	56	0.56876881346106
56	22040	57	0.43682245509998
56	22776	58	0.011403454476966
56	24121	59	-0.004927483992649
56	24849	60	0.0051499538589255
56	25645	61	0.0019255626760426
56	26373	62	-0.013169038267804
56	27101	63	0.00088922803290004
56	27821	64	0.005227062143387
56	28525	65	-0.0023473278246833
56	29205	66	0.014507149709388
56	29885	67	0.020449130907654
56	30565	68	-1.0092628812117
56	31245	69	-3.1298773999247
56	31876	70	-3.0693732687862
56	32507	71	-0.32727038922431
56	33138	72	-2.9233204039675
56	33769	73	-2.4516545677773
56	34400	74	-1.8307859116127
56	35031	75	-1.1072293122014
56	35663	76	-0.38822836943808
56	36294	77	-0.43277697018289
56	36925	78	-1.0802294420482e-07
56	37556	79	0
56	38187	80	0
56	38818	81	0
56	39449	82	0
56	40080	83	0.44114883393107
56	40711	84	-0.00075503706524616
56	41342	85	0.13121619789011
56	41973	86	0.54969195287288
56	42604	87	0.59001852842048
56	43235	88	0.57822289865464
56	43866	89	0.56479462846182
56	44497	90	0.67198487869464
56	45128	91	0.593476661928
56	45759	92	0.63103759384714
56	46390	93	0.56460231126286
56	47021	94	0.64281198401004
56	47652	95	0.60735911259428
56	48283	96	0.62320291917771
56	48914	97	0.60335825285874
56	49545	98	0.62387452939525
56	50176	99	0.62831117367372
56	50807	100	0.57307002167217
56	51438	101	0.64953327912837
56	52069	102	0.6075631492585
56	52700	103	0.60452846782282
56	53331	104	0.55702454075218
56	53962	105	0.56571820343845
56	54593	106	0.57876116565429
56	55224	107	0.60908816350624
56	55855	108	0.57827054073103
56	56486	109	0.55331280907616
56	57117	110	0.58248613601551
56	57748	111	0.62561418721452
56	58371	112	0.53904655339966
56	58970	113	-0.026256878580899
56	59569	114	-0.00096635052002725
56	60160	115	-0.00072349376045366
56	60743	116	0.0224784511514
56	61326	117	0.0063141193147764
56	61901	118	-0.0064850995875894
56	62468	119	-0.0047503868304197
56	63019	120	0.0052799559943395
56	63546	121	0.0035387364774913
56	64073	122	-0.036768505256621
56	64584	123	0.0159885945078
56	65087	124	-0.0057682633120599
56	65590	125	0.004198338985443
56	66086	126	-0.0037031640857457
56	66536	127	-0.0043025837093573
56	66897	128	0.019324921751394
56	67258	129	2.3299930617782e-05
55	5060	31	1.1445791300449
55	5494	32	1.7358777940523
55	5928	33	2.2970529004995
55	6362	34	2.8366915724117
55	6796	35	3.4888110780034
55	7339	36	4.1113942599267
55	7890	37	4.6698083103791
55	8449	38	5.2254692510392
55	9008	39	5.8877656624809
55	9672	40	6.458260483627
55	10336	41	7.0894843978498
55	11000	42	7.6948361048724
55	11672	43	8.3217879172105
55	12336	44	8.9366005938098
55	13008	45	9.4933256592665
55	13672	46	10.080374425637
55	14360	47	10.66460781899
55	15048	48	11.309880340869
55	15736	49	11.904171711148
55	16424	50	12.511342818101
55	17112	51	13.101822607784
55	17808	52	13.7364150093
55	18512	53	14.43179694981
55	19216	54	15.054860444429
55	19984	55	15.625080622068
55	20704	56	16.193849435529
55	22040	57	16.630671890629
55	22776	58	16.642075345106
55	24121	59	16.637147861114
55	24849	60	16.642297814973
55	25645	61	16.644223377649
55	26373	62	16.631054339381
55	27101	63	16.631943567414
55	27821	64	16.637170629557
55	28525	65	16.634823301733
55	29205	66	16.649330451442
55	29885	67	16.66977958235
55	30565	68	15.660516701138
55	31245	69	12.530639301213
55	31876	70	9.4612660324271
55	32507	71	9.1339956432028
55	33138	72	6.2106752392353
55	33769	73	3.759020671458
55	34400	74	1.9282347598453
55	35031	75	0.82100544764392
55	35663	76	0.43277707820584
55	36294	77	1.0802294420482e-07
55	36925	78	0
55	37556	79	0
55	38187	80	0
55	38818	81	0
55	39449	82	0
55	40080	83	0.44114883393107
55	40711	84	0.44039379686583
55	41342	85	0.57160999475594
55	41973	86	1.1213019476288
55	42604	87	1.7113204760493
55	43235	88	2.2895433747039
55	43866	89	2.8543380031658
55	44497	90	3.5263228818604
55	45128	91	4.1197995437884
55	45759	92	4.7508371376355
55	46390	93	5.3154394488984
55	47021	94	5.9582514329084
55	47652	95	6.5656105455027
55	48283	96	7.1888134646804
55	48914	97	7.7921717175392
55	49545	98	8.4160462469344
55	50176	99	9.0443574206081
55	50807	100	9.6174274422803
55	51438	101	10.266960721409
55	52069	102	10.874523870667
55	52700	103	11.47905233849
55	53331	104	12.036076879242
55	53962	105	12.601795082681
55	54593	106	13.180556248335
55	55224	107	13.789644411841
55	55855	108	14.367914952572
55	56486	109	14.921227761648
55	57117	110	15.503713897664
55	57748	111	16.129328084878
55	58371	112	16.668374638278
55	58970	113	16.642117759697
55	59569	114	16.641151409177
55	60160	115	16.640427915417
55	60743	116	16.662906366568
55	61326	117	16.669220485883
55	61901	118	16.662735386295
55	62468	119	16.657984999465
55	63019	120	16.663264955459
55	63546	121	16.666803691937
55	64073	122	16.63003518668
55	64584	123	16.646023781188
55	65087	124	16.640255517876
55	65590	125	16.644453856861
55	66086	126	16.640750692775
55	66536	127	16.636448109066
55	66897	128	16.655773030818
55	67258	129	16.655796330748
54	4634	30	30.299548252264
54	5060	31	30.299548252264
54	5494	32	31.14939066851
54	5928	33	32.606513827518
54	6362	34	34.65608118084
54	6796	35	37.257501138462
54	7339	36	40.457727353598
54	7890	37	44.286495201809
54	8449	38	48.725189663071
54	9008	39	53.692398342779
54	9672	40	59.277919882889
54	10336	41	65.492641813716
54	11000	42	72.289401975223
54	11672	43	79.711295588991
54	12336	44	87.748332132432
54	13008	45	96.409018195914
54	13672	46	105.64628464329
54	14360	47	115.47341072482
54	15048	48	125.86189148255
54	15736	49	136.87317947347
54	16424	50	148.51587130617
54	17112	51	160.75515540544
54	17808	52	173.58282266184
54	18512	53	187.04853881172
54	19216	54	201.17440466405
54	19984	55	215.94955502308
54	20704	56	231.31783246918
54	22040	57	247.25100415016
54	22776	58	263.76987375784
54	24121	59	280.41735869587
54	24849	60	297.06754699015
54	25645	61	313.71462236488
54	26373	62	330.36399958199
54	27101	63	347.00513808127
54	27821	64	363.65067787602
54	28525	65	380.30473385051
54	29205	66	396.95175607189
54	29885	67	413.60396957982
54	30565	68	430.26019948297
54	31245	69	446.70188355808
54	31876	70	460.62859092888
54	32507	71	471.46312943598
54	33138	72	480.55532037044
54	33769	73	488.04337285818
54	34400	74	492.85568541193
54	35031	75	495.55442581429
54	35663	76	496.82764289419
54	36294	77	497.36981814899
54	36925	78	497.64699999993
54	37556	79	497.647
54	38187	80	497.647
54	38818	81	497.647
54	39449	82	497.647
54	40080	83	497.647
54	40711	84	497.88399035093
54	41342	85	498.32239872709
54	41973	86	498.78623116769
54	42604	87	499.67484377899
54	43235	88	501.1222900968
54	43866	89	503.15399538044
54	44497	90	505.75500131948
54	45128	91	508.98567920103
54	45759	92	512.83056501177
54	46390	93	517.27842563853
54	47021	94	522.11442556777
54	47652	95	527.6025899753
54	48283	96	533.86626825543
54	48914	97	540.76944800765
54	49545	98	548.28577961974
54	50176	99	556.42225480127
54	50807	100	565.19030690422
54	51438	101	574.55852749082
54	52069	102	584.52129142526
54	52700	103	595.1254705405
54	53331	104	606.36272541937
54	53962	105	618.15520225748
54	54593	106	630.49930545381
54	55224	107	643.43521525396
54	55855	108	656.95991808592
54	56486	109	671.07863213875
54	57117	110	685.74874524415
54	57748	111	700.99668619476
54	58371	112	716.84960991456
54	58970	113	733.32206744697
54	59569	114	749.97191796807
54	60160	115	766.62048115462
54	60743	116	783.26831080551
54	61326	117	799.91913763226
54	61901	118	816.57677493043
54	62468	119	833.23030320497
54	63019	120	849.88788180389
54	63546	121	866.54213021516
54	64073	122	883.19380801043
54	64584	123	899.83874080501
54	65087	124	916.48401185612
54	65590	125	933.13145392332
54	66086	126	949.77975620889
54	66536	127	966.43025826043
54	66897	128	983.08073743315
54	67258	129	999.72954004174
53	4634	30	513.45
53	5060	31	513.45
53	5494	32	513.45
53	5928	33	513.45
53	6362	34	513.45
53	6796	35	513.45
53	7339	36	513.45
53	7890	37	513.45
53	8449	38	513.45
53	9008	39	513.45
53	9672	40	513.45
53	10336	41	513.45
53	11000	42	513.45
53	11672	43	513.45
53	12336	44	513.45
53	13008	45	513.45
53	13672	46	513.45
53	14360	47	513.45
53	15048	48	513.45
53	15736	49	513.45
53	16424	50	513.45
53	17112	51	513.45
53	17808	52	513.45
53	18512	53	513.45
53	19216	54	516.75
53	19984	55	516.75
53	20704	56	516.75
53	22040	57	516.75
53	22776	58	516.75
53	24121	59	516.75
53	24849	60	516.75
53	25645	61	516.75
53	26373	62	516.75
53	27101	63	516.75
53	27821	64	516.75
53	28525	65	516.75
53	29205	66	516.75
53	29885	67	516.75
53	30565	68	516.75
53	31245	69	516.75
53	31876	70	516.75
53	32507	71	516.75
53	33138	72	520.05
53	33769	73	520.05
53	34400	74	520.05
53	35031	75	520.05
53	35663	76	520.05
53	36294	77	520.05
53	36925	78	520.05
53	37556	79	520.05
53	38187	80	520.05
53	38818	81	520.05
53	39449	82	520.05
53	40080	83	520.05
53	40711	84	520.05
53	41342	85	520.05
53	41973	86	520.05
53	42604	87	520.05
53	43235	88	520.05
53	43866	89	520.05
53	44497	90	520.05
53	45128	91	520.05
53	45759	92	520.05
53	46390	93	520.44063795694
53	47021	94	521.8454350595
53	47652	95	523.11880885862
53	48283	96	523.35
53	48914	97	523.35
53	49545	98	523.35
53	50176	99	523.35
53	50807	100	523.35
53	51438	101	523.35
53	52069	102	523.35
53	52700	103	523.35
53	53331	104	523.35
53	53962	105	523.35
53	54593	106	523.35
53	55224	107	523.35
53	55855	108	523.35
53	56486	109	523.35
53	57117	110	523.35
53	57748	111	523.35
53	58371	112	523.35
53	58970	113	523.35
53	59569	114	523.35
53	60160	115	523.35
53	60743	116	523.35
53	61326	117	523.35
53	61901	118	523.35
53	62468	119	523.35
53	63019	120	523.35
53	63546	121	523.35
53	64073	122	523.35
53	64584	123	523.35
53	65087	124	523.35
53	65590	125	523.35
53	66086	126	523.35
53	66536	127	523.35
53	66897	128	523.35
53	67258	129	523.35
71	10336	41	1.3779841839858
71	11000	42	1.5080999435176
71	11672	43	1.5928934868723
71	12336	44	1.7705555784305
71	13008	45	1.9373734452243
71	13672	46	1.9763414944102
71	14360	47	2.0449982793153
71	15048	48	2.2714963851094
71	15736	49	2.2061083882185
71	16424	50	2.5054565660422
71	17112	51	2.6032952174511
71	17808	52	2.6321209759875
71	18512	53	2.8638136066363
71	19216	54	2.8702861231032
71	19984	55	2.9627754623934
71	20704	56	3.2022428364215
71	22040	57	3.2608581924323
71	22776	58	3.5134382434661
71	24121	59	3.5323780021203
71	24849	60	3.7260559954835
71	25645	61	3.927346135201
71	26373	62	4.0577048464606
71	27101	63	3.907618586251
71	27821	64	4.44551772326
71	28525	65	4.5009000968663
71	29205	66	4.5368590771058
71	29885	67	3.9292806959352
71	30565	68	2.3797060310098
71	31245	69	2.3401258080034
71	31876	70	2.4078743027178
71	32507	71	2.2203107952409
71	33138	72	2.3803891885503
71	33769	73	2.341025225198
71	34400	74	2.3668487136736
71	35031	75	2.2698670763675
71	35663	76	2.339730383636
71	36294	77	0.973
71	36925	78	0.973
71	37556	79	0.973
71	38187	80	0.973
71	38818	81	0.973
71	39449	82	0.973
71	40080	83	0.973
71	40711	84	0.973
71	41342	85	0.973
71	41973	86	1.1773603343436
71	42604	87	1.2783073123483
71	43235	88	1.4240837159843
71	43866	89	1.5515248308393
71	44497	90	1.6672500958738
71	45128	91	1.8078011354737
71	45759	92	1.9739137002342
71	46390	93	1.9915418479227
71	47021	94	2.1809738431761
71	47652	95	2.2490845961382
71	48283	96	2.4463559272319
71	48914	97	2.4345552508779
71	49545	98	2.5567707840367
71	50176	99	2.8260631091125
71	50807	100	3.0134059542028
71	51438	101	3.1184170332131
71	52069	102	3.2861299189677
71	52700	103	3.3998240138045
71	53331	104	3.4526153379849
71	53962	105	3.6984554741874
71	54593	106	3.6978370534811
71	55224	107	3.8547336211751
71	55855	108	4.2460736666841
71	56486	109	4.0916300578249
71	57117	110	4.495921042624
71	57748	111	4.3215473576961
71	58371	112	4.4514438583735
71	58970	113	2.7138677192531
71	59569	114	2.5684903007014
71	60160	115	2.5882160400898
71	60743	116	2.2898913603111
71	61326	117	2.5549623249991
71	61901	118	2.3757866508074
71	62468	119	2.5463961280158
71	63019	120	2.3913910087609
71	63546	121	2.1994348391035
71	64073	122	2.4046277398166
71	64584	123	2.444430318805
71	65087	124	2.3787258337621
71	65590	125	2.2696331807677
71	66086	126	2.2932014277869
71	66536	127	2.40385445879
71	66897	128	2.3934383126186
71	67258	129	2.3317061753599
71	67534	130	2.3824271462705
70	10336	41	0.61514037245885
70	11000	42	0.62808279749937
70	11672	43	0.5774902323354
70	12336	44	0.64805630630814
70	13008	45	0.67603690142743
70	13672	46	0.59348443229683
70	14360	47	0.55910049350001
70	15048	48	0.63584938282147
70	15736	49	0.51873504407704
70	16424	50	0.62981153522618
70	17112	51	0.61136415265501
70	17808	52	0.56426500592381
70	18512	53	0.61552864648402
70	19216	54	0.56287003081292
70	19984	55	0.55309326821938
70	20704	56	0.59887328355573
70	22040	57	0.57242819557898
70	22776	58	0.61447025300004
70	24121	59	0.57464836917818
70	24849	60	0.59347840529867
70	25645	61	0.61089964442887
70	26373	62	0.60523322224617
70	27101	63	0.52441981881857
70	27821	64	0.63171929781325
70	28525	65	0.60385810398497
70	29205	66	0.57426521410234
70	29885	67	0.39685123532981
70	30565	68	0.010070706522093
70	31245	69	0.00019924578256791
70	31876	70	0.016552472366023
70	32507	71	-0.02928953007795
70	33138	72	0.010311735933648
70	33769	73	0.00048397922888199
70	34400	74	0.006709216721358
70	35031	75	-0.01694533912465
70	35663	76	0.00046588115393931
70	36294	77	-0.79476215395215
70	36925	78	-3.015484756325
70	37556	79	-2.9440021006286
70	38187	80	-0.43480121712893
70	38818	81	-2.7799400049758
70	39449	82	-2.5440489439201
70	40080	83	-1.8022972850474
70	40711	84	-1.0067566656233
70	41342	85	-0.50018607738046
70	41973	86	0.10401878702091
70	42604	87	0.35002275663028
70	43235	88	0.52535133016816
70	43866	89	0.57219321441777
70	44497	90	0.58120509084154
70	45128	91	0.60924913938157
70	45759	92	0.64614894794416
70	46390	93	0.55936951029115
70	47021	94	0.61526085041862
70	47652	95	0.57974497552961
70	48283	96	0.62567016382702
70	48914	97	0.55085088993423
70	49545	98	0.55774162579328
70	50176	99	0.62915685743094
70	50807	100	0.64954092157074
70	51438	101	0.63242204451002
70	52069	102	0.64115679797716
70	52700	103	0.62850081477314
70	53331	104	0.59699414995499
70	53962	105	0.63136937263422
70	54593	106	0.58469572616741
70	55224	107	0.59022590250708
70	55855	108	0.65929217263125
70	56486	109	0.57205054932274
70	57117	110	0.63953034657054
70	57748	111	0.55415013038457
70	58371	112	0.55174144533513
70	58970	113	0.10418850027029
70	59569	114	0.065024667733962
70	60160	115	0.067624164472967
70	60743	116	-0.0072291240053772
70	61326	117	0.057513521063381
70	61901	118	0.012172219760863
70	62468	119	0.053117825425694
70	63019	120	0.013935540405701
70	63546	121	-0.033032501564428
70	64073	122	0.017733368291612
70	64584	123	0.026802046760434
70	65087	124	0.010086858589545
70	65590	125	-0.016616617965614
70	66086	126	-0.010415665813081
70	66536	127	0.016685865778594
70	66897	128	0.013650029067648
70	67258	129	-0.0016885910606206
70	67534	130	0.01062056174861
69	9672	40	0.74753472398064
69	10336	41	1.3626750964395
69	11000	42	1.9907578939389
69	11672	43	2.5682481262743
69	12336	44	3.2163044325824
69	13008	45	3.8923413340098
69	13672	46	4.4858257663067
69	14360	47	5.0449262598067
69	15048	48	5.6807756426281
69	15736	49	6.1995106867052
69	16424	50	6.8293222219314
69	17112	51	7.4406863745864
69	17808	52	8.0049513805102
69	18512	53	8.6204800269942
69	19216	54	9.1833500578071
69	19984	55	9.7364433260265
69	20704	56	10.335316609582
69	22040	57	10.907744805161
69	22776	58	11.522215058161
69	24121	59	12.096863427339
69	24849	60	12.690341832638
69	25645	61	13.301241477067
69	26373	62	13.906474699313
69	27101	63	14.430894518132
69	27821	64	15.062613815945
69	28525	65	15.66647191993
69	29205	66	16.240737134032
69	29885	67	16.637588369362
69	30565	68	16.647659075884
69	31245	69	16.647858321667
69	31876	70	16.664410794033
69	32507	71	16.635121263955
69	33138	72	16.645432999888
69	33769	73	16.645916979117
69	34400	74	16.652626195839
69	35031	75	16.635680856714
69	35663	76	16.636146737868
69	36294	77	15.841384583916
69	36925	78	12.825899827591
69	37556	79	9.8818977269622
69	38187	80	9.4470965098333
69	38818	81	6.6671565048575
69	39449	82	4.1231075609374
69	40080	83	2.32081027589
69	40711	84	1.3140536102667
69	41342	85	0.81386753288627
69	41973	86	0.91788631990718
69	42604	87	1.2679090765375
69	43235	88	1.7932604067056
69	43866	89	2.3654536211234
69	44497	90	2.9466587119649
69	45128	91	3.5559078513465
69	45759	92	4.2020567992907
69	46390	93	4.7614263095818
69	47021	94	5.3766871600004
69	47652	95	5.95643213553
69	48283	96	6.582102299357
69	48914	97	7.1329531892913
69	49545	98	7.6906948150846
69	50176	99	8.3198516725155
69	50807	100	8.9693925940862
69	51438	101	9.6018146385963
69	52069	102	10.242971436573
69	52700	103	10.871472251347
69	53331	104	11.468466401302
69	53962	105	12.099835773936
69	54593	106	12.684531500103
69	55224	107	13.27475740261
69	55855	108	13.934049575242
69	56486	109	14.506100124564
69	57117	110	15.145630471135
69	57748	111	15.699780601519
69	58371	112	16.251522046854
69	58970	113	16.355710547125
69	59569	114	16.420735214859
69	60160	115	16.488359379332
69	60743	116	16.481130255326
69	61326	117	16.53864377639
69	61901	118	16.550815996151
69	62468	119	16.603933821576
69	63019	120	16.617869361982
69	63546	121	16.584836860418
69	64073	122	16.602570228709
69	64584	123	16.62937227547
69	65087	124	16.639459134059
69	65590	125	16.622842516094
69	66086	126	16.61242685028
69	66536	127	16.629112716059
69	66897	128	16.642762745127
69	67258	129	16.641074154066
69	67534	130	16.651694715815
68	9008	39	30.1
68	9672	40	30.1
68	10336	41	30.517318385913
68	11000	42	31.605117950025
68	11672	43	33.319336732624
68	12336	44	35.62847240286
68	13008	45	38.549139731864
68	13672	46	42.134986791434
68	14360	47	46.36407769842
68	15048	48	51.167899448122
68	15736	49	56.552307872171
68	16424	50	62.536489714389
68	17112	51	69.08509710287
68	17808	52	76.242941118465
68	18512	53	83.994115112233
68	19216	54	92.335547854148
68	19984	55	101.26841747209
68	20704	56	110.74476883457
68	22040	57	120.81379128061
68	22776	58	131.46111807624
68	24121	59	142.71601011378
68	24849	60	154.55339443523
68	25645	61	166.96149312224
68	26373	62	179.98036122546
68	27101	63	193.61439099937
68	27821	64	207.82050390406
68	28525	65	222.60068745992
68	29205	66	237.99072791507
68	29885	67	253.95670233762
68	30565	68	270.49801513903
68	31245	69	287.1491177398
68	31876	70	303.79456973168
68	32507	71	320.44801482262
68	33138	72	337.09764325336
68	33769	73	353.7438690686
68	34400	74	370.39607311762
68	35031	75	387.04391082139
68	35663	76	403.69225904262
68	36294	77	420.34151415231
68	36925	78	436.84640608944
68	37556	79	451.02159931427
68	38187	80	462.21138466881
68	38818	81	471.47589725625
68	39449	82	479.46126806621
68	40080	83	484.69547747082
68	40711	84	487.7399640543
68	41342	85	489.44827162252
68	41973	86	490.44589971582
68	42604	87	491.26740271784
68	43235	88	492.36342377492
68	43866	89	493.92418642523
68	44497	90	496.03370256898
68	45128	91	498.72154662633
68	45759	92	502.00594611821
68	46390	93	505.93415936006
68	47021	94	510.44561278893
68	47652	95	515.55618281555
68	48283	96	521.08047651297
68	48914	97	527.13939020856
68	49545	98	534.02014576388
68	50176	99	541.44917571237
68	50807	100	549.47860401967
68	51438	101	558.15328286537
68	52069	102	567.47365150189
68	52700	103	577.43804233781
68	53331	104	588.012609118
68	53962	105	599.21310995476
68	54593	106	611.03366513985
68	55224	107	623.44693421754
68	55855	108	636.4511639477
68	56486	109	650.09784765402
68	57117	110	664.3494326891
68	57748	111	679.21056708181
68	58371	112	694.67942860378
68	58970	113	710.69904378871
68	59569	114	727.02845525444
68	60160	115	743.42048562494
68	60743	116	759.86283381008
68	61326	117	776.34382837119
68	61901	118	792.86865105798
68	62468	119	809.41150426057
68	63019	120	825.98975203802
68	63546	121	842.58101934223
68	64073	122	859.17554760157
68	64584	123	875.77936105642
68	65087	124	892.39161597711
68	65590	125	909.01311589351
68	66086	126	925.63469237575
68	66536	127	942.26398773224
68	66897	128	958.89763370903
68	67258	129	975.53621446109
68	67534	130	992.18167617392
67	9008	39	513.45
67	9672	40	513.45
67	10336	41	513.45
67	11000	42	513.45
67	11672	43	513.45
67	12336	44	513.45
67	13008	45	513.45
67	13672	46	513.45
67	14360	47	513.45
67	15048	48	513.45
67	15736	49	513.45
67	16424	50	513.45
67	17112	51	513.45
67	17808	52	513.45
67	18512	53	513.45
67	19216	54	513.45
67	19984	55	513.45
67	20704	56	513.45
67	22040	57	513.45
67	22776	58	513.45
67	24121	59	513.45
67	24849	60	513.45
67	25645	61	513.45
67	26373	62	513.45
67	27101	63	516.75
67	27821	64	516.75
67	28525	65	516.75
67	29205	66	516.75
67	29885	67	516.75
67	30565	68	516.75
67	31245	69	516.75
67	31876	70	516.75
67	32507	71	516.75
67	33138	72	516.75
67	33769	73	516.75
67	34400	74	516.75
67	35031	75	516.75
67	35663	76	516.75
67	36294	77	516.75
67	36925	78	516.75
67	37556	79	516.75
67	38187	80	516.75
67	38818	81	520.05
67	39449	82	520.05
67	40080	83	520.05
67	40711	84	520.05
67	41342	85	520.05
67	41973	86	520.05
67	42604	87	520.05
67	43235	88	520.05
67	43866	89	520.05
67	44497	90	520.05
67	45128	91	520.05
67	45759	92	520.05
67	46390	93	520.05
67	47021	94	520.05
67	47652	95	520.25522051016
67	48283	96	521.48258958375
67	48914	97	523.06894056076
67	49545	98	523.35
67	50176	99	523.35
67	50807	100	523.35
67	51438	101	523.35
67	52069	102	523.35
67	52700	103	523.35
67	53331	104	523.35
67	53962	105	523.35
67	54593	106	523.35
67	55224	107	523.35
67	55855	108	523.35
67	56486	109	523.35
67	57117	110	523.35
67	57748	111	523.35
67	58371	112	523.35
67	58970	113	523.35
67	59569	114	523.35
67	60160	115	523.35
67	60743	116	523.35
67	61326	117	523.35
67	61901	118	523.35
67	62468	119	523.35
67	63019	120	523.35
67	63546	121	523.35
67	64073	122	523.35
67	64584	123	523.35
67	65087	124	523.35
67	65590	125	523.35
67	66086	126	523.35
67	66536	127	523.35
67	66897	128	523.35
67	67258	129	523.35
67	67534	130	523.35
29	584	12	1.3750620101381
29	694	13	1.5259152842014
29	804	14	1.6682507936386
29	914	15	1.6978088519854
[...]
47	68439	136	808.65564504325
47	68573	137	825.305427738
47	68707	138	841.95726187032
47	68841	139	858.60206964459
47	68926	140	875.25042219455
47	68982	141	891.90370988945
47	69038	142	908.54591154982
47	69086	143	925.18713386984
47	69134	144	941.83936266294
47	69182	145	958.4912969634
47	69230	146	975.14352754675
47	69278	147	991.79342403325
46	2973	25	513.45
46	3294	26	513.45
46	3623	27	513.45
46	3960	28	513.45
46	4297	29	513.45
46	4634	30	513.45
46	5060	31	513.45
46	5494	32	513.45
46	5928	33	513.45
46	6362	34	513.45
46	6796	35	513.45
46	7339	36	513.45
46	7890	37	513.45
46	8449	38	513.45
46	9008	39	513.45
46	9672	40	513.45
46	10336	41	513.45
46	11000	42	513.45
46	11672	43	513.45
46	12336	44	513.45
46	13008	45	513.45
46	13672	46	513.45
46	14360	47	513.45
46	15048	48	513.45
46	15736	49	516.75
46	16424	50	516.75
46	17112	51	516.75
46	17808	52	516.75
46	18512	53	516.75
46	19216	54	516.75
46	19984	55	516.75
46	20704	56	516.75
46	22040	57	516.75
46	22776	58	516.75
46	24121	59	516.75
46	24849	60	516.75
46	25645	61	516.75
46	26373	62	516.75
46	27101	63	516.75
46	27821	64	516.75
46	28525	65	516.75
46	29205	66	516.75
46	29885	67	516.75
46	30565	68	516.75
46	31245	69	516.75
46	31876	70	516.75
46	32507	71	516.75
46	33138	72	516.75
46	33769	73	516.75
46	34400	74	516.75
46	35031	75	516.75
46	35663	76	516.75
46	36294	77	516.75
46	36925	78	516.75
46	37556	79	516.75
46	38187	80	516.75
46	38818	81	516.75
46	39449	82	516.75
46	40080	83	516.75
46	40711	84	516.75
46	41342	85	516.75
46	41973	86	516.75
46	42604	87	516.75
46	43235	88	516.75
46	43866	89	516.75
46	44497	90	516.75
46	45128	91	516.75
46	45759	92	516.75
46	46390	93	516.75
46	47021	94	516.75
46	47652	95	516.75
46	48283	96	516.75
46	48914	97	516.75
46	49545	98	516.75
46	50176	99	516.75
46	50807	100	516.75
46	51438	101	516.75
46	52069	102	516.75
46	52700	103	516.75
46	53331	104	516.75
46	53962	105	520.05
46	54593	106	520.05
46	55224	107	520.05
46	55855	108	520.05
46	56486	109	520.05
46	57117	110	520.29409472388
46	57748	111	521.01187529366
46	58371	112	522.51712349948
46	58970	113	523.27984643215
46	59569	114	523.35
46	60160	115	523.35
46	60743	116	523.35
46	61326	117	523.35
46	61901	118	523.35
46	62468	119	523.35
46	63019	120	523.35
46	63546	121	523.35
46	64073	122	523.35
46	64584	123	523.35
46	65087	124	523.35
46	65590	125	523.35
46	66086	126	523.35
46	66536	127	523.35
46	66897	128	523.35
46	67258	129	523.35
46	67534	130	523.35
46	67745	131	523.35
46	67895	132	523.35
46	68037	133	523.35
46	68171	134	523.35
46	68305	135	523.35
46	68439	136	523.35
46	68573	137	523.35
46	68707	138	523.35
46	68841	139	523.35
46	68926	140	523.35
46	68982	141	523.35
46	69038	142	523.35
46	69086	143	523.35
46	69134	144	523.35
46	69182	145	523.35
46	69230	146	523.35
46	69278	147	523.35
8	57	3	1.4390235059471
8	80	4	1.5694286155237
8	103	5	1.6339261471209
8	151	6	1.8160694584884
8	199	7	1.9146151508778
8	247	8	2.0263372386627
8	295	9	2.156698972002
8	364	10	2.26938955188
8	474	11	2.3792219923096
8	584	12	2.443656940838
8	694	13	2.663771381376
8	804	14	2.797552522593
8	914	15	2.8964832648035
8	1077	16	3.0644897596516
8	1248	17	3.0269314573628
8	1419	18	3.4595939103897
8	1590	19	3.389258700702
8	1761	20	3.7644945525112
8	1997	21	3.8458476569474
8	2241	22	3.989720704428
8	2485	23	4.2303855461351
8	2729	24	4.2843371088771
8	2973	25	4.4593163770391
8	3294	26	4.3287956701638
8	3623	27	4.5704197887847
8	3960	28	3.6444256813728
8	4297	29	2.3969914666224
8	4634	30	2.2768689913273
8	5060	31	2.4951588347121
8	5494	32	2.3421127386652
8	5928	33	2.2362715375385
8	6362	34	2.3345471811176
8	6796	35	2.3319890485933
8	7339	36	2.3792890324725
8	7890	37	2.3708297430344
8	8449	38	2.2567386419057
8	9008	39	2.3901776766722
8	9672	40	2.3549441434584
8	10336	41	2.345861985544
8	11000	42	0.973
8	11672	43	0.973
8	12336	44	0.973
8	13008	45	0.973
8	13672	46	0.973
8	14360	47	0.973
8	15048	48	0.973
8	15736	49	0.973
8	16424	50	0.973
8	17112	51	0.973
8	17808	52	0.973
8	18512	53	0.973
8	19216	54	0.973
8	19984	55	0.973
8	20704	56	0.973
8	22040	57	0.973
8	22776	58	0.973
8	24121	59	0.973
8	24849	60	0.973
8	25645	61	0.973
8	26373	62	0.973
8	27101	63	0.973
8	27821	64	0.973
8	28525	65	0.973
8	29205	66	0.973
8	29885	67	0.973
8	30565	68	0.973
8	31245	69	0.973
8	31876	70	0.973
8	32507	71	0.973
8	33138	72	0.973
8	33769	73	0.973
8	34400	74	0.973
8	35031	75	0.973
8	35663	76	0.973
8	36294	77	0.973
8	36925	78	0.973
8	37556	79	0.973
8	38187	80	0.973
8	38818	81	0.973
8	39449	82	0.973
8	40080	83	0.973
8	40711	84	0.973
8	41342	85	0.973
8	41973	86	0.973
8	42604	87	0.973
8	43235	88	0.973
8	43866	89	0.973
8	44497	90	0.973
8	45128	91	0.973
8	45759	92	0.973
8	46390	93	0.973
8	47021	94	0.973
8	47652	95	0.973
8	48283	96	0.973
8	48914	97	0.973
8	49545	98	0.973
8	50176	99	0.973
8	50807	100	0.973
8	51438	101	0.973
8	52069	102	0.973
8	52700	103	0.973
8	53331	104	0.973
8	53962	105	0.973
8	54593	106	0.973
8	55224	107	0.973
8	55855	108	0.973
8	56486	109	0.973
8	57117	110	0.973
8	57748	111	0.973
8	58371	112	0.973
8	58970	113	0.973
8	59569	114	0.973
8	60160	115	0.973
8	60743	116	0.973
8	61326	117	0.973
8	61901	118	0.973
8	62468	119	0.973
8	63019	120	0.973
8	63546	121	0.973
8	64073	122	0.973
8	64584	123	0.973
8	65087	124	0.973
8	65590	125	0.973
8	66086	126	0.973
8	66536	127	0.973
8	66897	128	0.973
8	67258	129	0.973
8	67534	130	0.973
8	67745	131	0.973
8	67895	132	0.973
8	68037	133	0.973
8	68171	134	0.973
8	68305	135	0.973
8	68439	136	0.973
8	68573	137	0.973
8	68707	138	0.973
8	68841	139	0.973
8	68926	140	0.973
8	68982	141	0.973
8	69038	142	0.973
8	69086	143	0.973
8	69134	144	0.973
8	69182	145	0.973
8	69230	146	0.973
8	69278	147	0.973
8	69326	148	0.973
8	69357	149	0.973
8	69388	150	0.973
8	69419	151	0.973
8	69450	152	0.973
8	69481	153	0.973
8	69512	154	0.973
8	69543	155	0.973
8	69574	156	0.973
8	69605	157	0.973
8	69636	158	0.973
8	69667	159	0.973
8	69698	160	0.973
8	69729	161	0.973
8	69760	162	0.973
8	69791	163	0.973
8	69822	164	0.973
8	69853	165	1.2650139088355
8	69884	166	1.3914323874382
8	69915	167	1.47954651241
8	69946	168	1.6283723830127
8	69977	169	1.6832668226336
8	70008	170	1.8334003114367
8	70039	171	1.9551646557692
8	70070	172	2.0991892968136
8	70101	173	2.1577943193141
8	70132	174	2.3299564110763
8	70163	175	2.3879490211314
8	70194	176	2.578623709528
8	70225	177	2.6510559564105
8	70256	178	2.7362288939305
8	70287	179	2.9405710948562
8	70318	180	2.877932387916
7	57	3	0.56464112871327
7	80	4	0.59842192206532
7	103	5	0.54071908293292
7	151	6	0.62187326507643
7	199	7	0.59921295389533
7	247	8	0.5939918044582
7	295	9	0.60240456877276
7	364	10	0.5968086797744
7	474	11	0.59048793366179
7	584	12	0.561365296226
7	694	13	0.61420512328856
7	804	14	0.6152465133369
7	914	15	0.60060698384419
7	1077	16	0.61569227999076
7	1248	17	0.54972302028909
7	1419	18	0.66283886495978
7	1590	19	0.58526812497526
7	1761	20	0.6630152849853
7	1997	21	0.63738426719792
7	2241	22	0.63320345945656
7	2485	23	0.65567799839191
7	2729	24	0.62433191752993
7	2973	25	0.62757891784422
7	3294	26	0.55429235245101
7	3623	27	0.5785442436952
7	3960	28	0.3261298088218
7	4297	29	0.014441481493414
7	4634	30	-0.015047074332834
7	5060	31	0.038139036567884
7	5494	32	3.9910757912764e-05
7	5928	33	-0.025550493551417
7	6362	34	-0.0010175166372228
7	6796	35	-0.0016054530721163
7	7339	36	0.0098751473054293
7	7890	37	0.0075289237964924
7	8449	38	-0.020283059952781
7	9008	39	0.01259375813417
7	9672	40	0.0036972697265476
7	10336	41	0.0013909674715222
7	11000	42	-4.5
7	11672	43	-4.5
7	12336	44	-4.5
7	13008	45	-2.7150306254777
7	13672	46	-0.43062784160077
7	14360	47	-0.00981297404334
7	15048	48	0
7	15736	49	0
7	16424	50	0
7	17112	51	0
7	17808	52	0
7	18512	53	0
7	19216	54	0
7	19984	55	0
7	20704	56	0
7	22040	57	0
7	22776	58	0
7	24121	59	0
7	24849	60	0
7	25645	61	0
7	26373	62	0
7	27101	63	0
7	27821	64	0
7	28525	65	0
7	29205	66	0
7	29885	67	0
7	30565	68	0
7	31245	69	0
7	31876	70	0
7	32507	71	0
7	33138	72	0
7	33769	73	0
7	34400	74	0
7	35031	75	0
7	35663	76	0
7	36294	77	0
7	36925	78	0
7	37556	79	0
7	38187	80	0
7	38818	81	0
7	39449	82	0
7	40080	83	0
7	40711	84	0
7	41342	85	0
7	41973	86	0
7	42604	87	0
7	43235	88	0
7	43866	89	0
7	44497	90	0
7	45128	91	0
7	45759	92	0
7	46390	93	0
7	47021	94	0
7	47652	95	0
7	48283	96	0
7	48914	97	0
7	49545	98	0
7	50176	99	0
7	50807	100	0
7	51438	101	0
7	52069	102	0
7	52700	103	0
7	53331	104	0
7	53962	105	0
7	54593	106	0
7	55224	107	0
7	55855	108	0
7	56486	109	0
7	57117	110	0
7	57748	111	0
7	58371	112	0
7	58970	113	0
7	59569	114	0
7	60160	115	0
7	60743	116	0
7	61326	117	0
7	61901	118	0
7	62468	119	0
7	63019	120	0
7	63546	121	0
7	64073	122	0
7	64584	123	0
7	65087	124	0
7	65590	125	0
7	66086	126	0
7	66536	127	0
7	66897	128	0
7	67258	129	0
7	67534	130	0
7	67745	131	0
7	67895	132	0
7	68037	133	0
7	68171	134	0
7	68305	135	0
7	68439	136	0
7	68573	137	0
7	68707	138	0
7	68841	139	0
7	68926	140	0
7	68982	141	0
7	69038	142	0
7	69086	143	0
7	69134	144	0
7	69182	145	0
7	69230	146	0
7	69278	147	0
7	69326	148	0
7	69357	149	0
7	69388	150	0
7	69419	151	0
7	69450	152	0
7	69481	153	0
7	69512	154	0
7	69543	155	0
7	69574	156	0
7	69605	157	0
7	69636	158	0
7	69667	159	0
7	69698	160	0
7	69729	161	0
7	69760	162	0
7	69791	163	0
7	69822	164	0
7	69853	165	0.70805794971138
7	69884	166	0.65552129341135
7	69915	167	0.58521687425673
7	69946	168	0.63103003934026
7	69977	169	0.55489180773497
7	70008	170	0.59852708466351
7	70039	171	0.60162964018062
7	70070	172	0.61897824604995
7	70101	173	0.57454764299095
7	70132	174	0.61003973335959
7	70163	175	0.57270239870064
7	70194	176	0.61147883304395
7	70225	177	0.58455398228951
7	70256	178	0.56844492172822
7	70287	179	0.60473053372465
7	70318	180	0.52793550719507
6	34	2	1.2176027467799
6	57	3	1.7822438754932
6	80	4	2.3806657975585
6	103	5	2.9213848804914
6	151	6	3.5432581455679
6	199	7	4.1424710994632
6	247	8	4.7364629039214
6	295	9	5.3388674726942
6	364	10	5.9356761524686
6	474	11	6.5261640861304
6	584	12	7.0875293823564
6	694	13	7.7017345056449
6	804	14	8.3169810189818
6	914	15	8.917588002826
6	1077	16	9.5332802828168
6	1248	17	10.083003303106
6	1419	18	10.745842168066
6	1590	19	11.331110293041
6	1761	20	11.994125578026
6	1997	21	12.631509845224
6	2241	22	13.264713304681
6	2485	23	13.920391303073
6	2729	24	14.544723220603
6	2973	25	15.172302138447
6	3294	26	15.726594490898
6	3623	27	16.305138734593
6	3960	28	16.631268543415
6	4297	29	16.645710024908
6	4634	30	16.630662950575
6	5060	31	16.668801987143
6	5494	32	16.668841897901
6	5928	33	16.64329140435
6	6362	34	16.642273887713
6	6796	35	16.64066843464
6	7339	36	16.650543581946
6	7890	37	16.658072505742
6	8449	38	16.63778944579
6	9008	39	16.650383203924
6	9672	40	16.65408047365
6	10336	41	16.655471441122
6	11000	42	12.155471441122
6	11672	43	7.6554714411218
6	12336	44	3.1554714411218
6	13008	45	0.44044081564411
6	13672	46	0.00981297404334
6	14360	47	0
6	15048	48	0
6	15736	49	0
6	16424	50	0
6	17112	51	0
6	17808	52	0
6	18512	53	0
6	19216	54	0
6	19984	55	0
6	20704	56	0
6	22040	57	0
6	22776	58	0
6	24121	59	0
6	24849	60	0
6	25645	61	0
6	26373	62	0
6	27101	63	0
6	27821	64	0
6	28525	65	0
6	29205	66	0
6	29885	67	0
6	30565	68	0
6	31245	69	0
6	31876	70	0
6	32507	71	0
6	33138	72	0
6	33769	73	0
6	34400	74	0
6	35031	75	0
6	35663	76	0
6	36294	77	0
6	36925	78	0
6	37556	79	0
6	38187	80	0
6	38818	81	0
6	39449	82	0
6	40080	83	0
6	40711	84	0
6	41342	85	0
6	41973	86	0
6	42604	87	0
6	43235	88	0
6	43866	89	0
6	44497	90	0
6	45128	91	0
6	45759	92	0
6	46390	93	0
6	47021	94	0
6	47652	95	0
6	48283	96	0
6	48914	97	0
6	49545	98	0
6	50176	99	0
6	50807	100	0
6	51438	101	0
6	52069	102	0
6	52700	103	0
6	53331	104	0
6	53962	105	0
6	54593	106	0
6	55224	107	0
6	55855	108	0
6	56486	109	0
6	57117	110	0
6	57748	111	0
6	58371	112	0
6	58970	113	0
6	59569	114	0
6	60160	115	0
6	60743	116	0
6	61326	117	0
6	61901	118	0
6	62468	119	0
6	63019	120	0
6	63546	121	0
6	64073	122	0
6	64584	123	0
6	65087	124	0
6	65590	125	0
6	66086	126	0
6	66536	127	0
6	66897	128	0
6	67258	129	0
6	67534	130	0
6	67745	131	0
6	67895	132	0
6	68037	133	0
6	68171	134	0
6	68305	135	0
6	68439	136	0
6	68573	137	0
6	68707	138	0
6	68841	139	0
6	68926	140	0
6	68982	141	0
6	69038	142	0
6	69086	143	0
6	69134	144	0
6	69182	145	0
6	69230	146	0
6	69278	147	0
6	69326	148	0
6	69357	149	0
6	69388	150	0
6	69419	151	0
6	69450	152	0
6	69481	153	0
6	69512	154	0
6	69543	155	0
6	69574	156	0
6	69605	157	0
6	69636	158	0
6	69667	159	0
6	69698	160	0
6	69729	161	0
6	69760	162	0
6	69791	163	0
6	69822	164	0
6	69853	165	0.70805794971138
6	69884	166	1.3635792431227
6	69915	167	1.9487961173795
6	69946	168	2.5798261567197
6	69977	169	3.1347179644547
6	70008	170	3.7332450491182
6	70039	171	4.3348746892988
6	70070	172	4.9538529353488
6	70101	173	5.5284005783397
6	70132	174	6.1384403116993
6	70163	175	6.7111427104
6	70194	176	7.3226215434439
6	70225	177	7.9071755257334
6	70256	178	8.4756204474616
6	70287	179	9.0803509811863
6	70318	180	9.6082864883814
5	11	1	30.417323163598
5	34	2	30.417323163598
5	57	3	31.359140468875
5	80	4	32.881091218872
5	103	5	35.010649565878
5	151	6	37.671700146906
5	199	7	40.91875842597
5	247	8	44.809754620036
5	295	9	49.287869560347
5	364	10	54.353737141192
5	474	11	60.020251393026
5	584	12	66.270025459764
5	694	13	73.098347139774
5	804	14	80.511004403521
5	914	15	88.55401444108
5	1077	16	97.206072652619
5	1248	17	106.4702075591
5	1419	18	116.29124633292
5	1590	19	126.72829509095
5	1761	20	137.78816170969
5	1997	21	149.46495920789
5	2241	22	161.80813844231
5	2485	23	174.80825073506
5	2729	24	188.42762729576
5	2973	25	202.69027178236
5	3294	26	217.55825583916
5	3623	27	233.01869660525
5	3960	28	249.05844985339
5	4297	29	265.61268081672
5	4634	30	282.26438825714
5	5060	31	298.91001468952
5	5494	32	315.56141450832
5	5928	33	332.21680582027
5	6362	34	348.8604917855
5	6796	35	365.51377622507
5	7339	36	382.16273137047
5	7890	37	398.80795015423
5	8449	38	415.46416675463
5	9008	39	432.11410450827
5	9672	40	448.76642553417
5	10336	41	465.42406973541
5	11000	42	482.06983526732
5	11672	43	496.25030670844
5	12336	44	505.93077814956
5	13008	45	511.11124959068
5	13672	46	512.26991949104
5	14360	47	512.64895227984
5	15048	48	512.649
5	15736	49	512.649
5	16424	50	512.649
5	17112	51	512.649
5	17808	52	512.649
5	18512	53	512.649
5	19216	54	512.649
5	19984	55	512.649
5	20704	56	512.649
5	22040	57	512.649
5	22776	58	512.649
5	24121	59	512.649
5	24849	60	512.649
5	25645	61	512.649
5	26373	62	512.649
5	27101	63	512.649
5	27821	64	512.649
5	28525	65	512.649
5	29205	66	512.649
5	29885	67	512.649
5	30565	68	512.649
5	31245	69	512.649
5	31876	70	512.649
5	32507	71	512.649
5	33138	72	512.649
5	33769	73	512.649
5	34400	74	512.649
5	35031	75	512.649
5	35663	76	512.649
5	36294	77	512.649
5	36925	78	512.649
5	37556	79	512.649
5	38187	80	512.649
5	38818	81	512.649
5	39449	82	512.649
5	40080	83	512.649
5	40711	84	512.649
5	41342	85	512.649
5	41973	86	512.649
5	42604	87	512.649
5	43235	88	512.649
5	43866	89	512.649
5	44497	90	512.649
5	45128	91	512.649
5	45759	92	512.649
5	46390	93	512.649
5	47021	94	512.649
5	47652	95	512.649
5	48283	96	512.649
5	48914	97	512.649
5	49545	98	512.649
5	50176	99	512.649
5	50807	100	512.649
5	51438	101	512.649
5	52069	102	512.649
5	52700	103	512.649
5	53331	104	512.649
5	53962	105	512.649
5	54593	106	512.649
5	55224	107	512.649
5	55855	108	512.649
5	56486	109	512.649
5	57117	110	512.649
5	57748	111	512.649
5	58371	112	512.649
5	58970	113	512.649
5	59569	114	512.649
5	60160	115	512.649
5	60743	116	512.649
5	61326	117	512.649
5	61901	118	512.649
5	62468	119	512.649
5	63019	120	512.649
5	63546	121	512.649
5	64073	122	512.649
5	64584	123	512.649
5	65087	124	512.649
5	65590	125	512.649
5	66086	126	512.649
5	66536	127	512.649
5	66897	128	512.649
5	67258	129	512.649
5	67534	130	512.649
5	67745	131	512.649
5	67895	132	512.649
5	68037	133	512.649
5	68171	134	512.649
5	68305	135	512.649
5	68439	136	512.649
5	68573	137	512.649
5	68707	138	512.649
5	68841	139	512.649
5	68926	140	512.649
5	68982	141	512.649
5	69038	142	512.649
5	69086	143	512.649
5	69134	144	512.649
5	69182	145	512.649
5	69230	146	512.649
5	69278	147	512.649
5	69326	148	512.649
5	69357	149	512.649
5	69388	150	512.649
5	69419	151	512.649
5	69450	152	512.649
5	69481	153	512.649
5	69512	154	512.649
5	69543	155	512.649
5	69574	156	512.649
5	69605	157	512.649
5	69636	158	512.649
5	69667	159	512.649
5	69698	160	512.649
5	69729	161	512.649
5	69760	162	512.649
5	69791	163	512.649
5	69822	164	512.649
5	69853	165	512.649
5	69884	166	513.05281813983
5	69915	167	514.14510237045
5	69946	168	515.82319093998
5	69977	169	518.0922379961
5	70008	170	520.85792567195
5	70039	171	524.14396909772
5	70070	172	528.1416989029
5	70101	173	532.82021604991
5	70132	174	538.08290402496
5	70163	175	543.94754718134
5	70194	176	550.39904046771
5	70225	177	557.43029918498
5	70256	178	565.0867283139
5	70287	179	573.2880420814
5	70318	180	582.09165843877
4	11	1	513.45
4	34	2	513.45
4	57	3	513.45
4	80	4	513.45
4	103	5	513.45
4	151	6	513.45
4	199	7	513.45
4	247	8	513.45
4	295	9	513.45
4	364	10	513.45
4	474	11	513.45
4	584	12	513.45
4	694	13	513.45
4	804	14	513.45
4	914	15	513.45
4	1077	16	513.45
4	1248	17	513.45
4	1419	18	513.45
4	1590	19	513.45
4	1761	20	513.45
4	1997	21	513.45
4	2241	22	513.45
4	2485	23	513.45
4	2729	24	513.45
4	2973	25	513.45
4	3294	26	516.75
4	3623	27	516.75
4	3960	28	516.75
4	4297	29	516.75
4	4634	30	516.75
4	5060	31	516.75
4	5494	32	516.75
4	5928	33	516.75
4	6362	34	516.75
4	6796	35	516.75
4	7339	36	516.75
4	7890	37	516.75
4	8449	38	516.75
4	9008	39	516.75
4	9672	40	516.75
4	10336	41	516.75
4	11000	42	516.75
4	11672	43	516.75
4	12336	44	516.75
4	13008	45	516.75
4	13672	46	516.75
4	14360	47	516.75
4	15048	48	516.75
4	15736	49	516.75
4	16424	50	516.75
4	17112	51	516.75
4	17808	52	516.75
4	18512	53	516.75
4	19216	54	516.75
4	19984	55	516.75
4	20704	56	516.75
4	22040	57	516.75
4	22776	58	516.75
4	24121	59	516.75
4	24849	60	516.75
4	25645	61	516.75
4	26373	62	516.75
4	27101	63	516.75
4	27821	64	516.75
4	28525	65	516.75
4	29205	66	516.75
4	29885	67	516.75
4	30565	68	516.75
4	31245	69	516.75
4	31876	70	516.75
4	32507	71	516.75
4	33138	72	516.75
4	33769	73	516.75
4	34400	74	516.75
4	35031	75	516.75
4	35663	76	516.75
4	36294	77	516.75
4	36925	78	516.75
4	37556	79	516.75
4	38187	80	516.75
4	38818	81	516.75
4	39449	82	516.75
4	40080	83	516.75
4	40711	84	516.75
4	41342	85	516.75
4	41973	86	516.75
4	42604	87	516.75
4	43235	88	516.75
4	43866	89	516.75
4	44497	90	516.75
4	45128	91	516.75
4	45759	92	516.75
4	46390	93	516.75
4	47021	94	516.75
4	47652	95	516.75
4	48283	96	516.75
4	48914	97	516.75
4	49545	98	516.75
4	50176	99	516.75
4	50807	100	516.75
4	51438	101	516.75
4	52069	102	516.75
4	52700	103	516.75
4	53331	104	516.75
4	53962	105	516.75
4	54593	106	516.75
4	55224	107	516.75
4	55855	108	516.75
4	56486	109	516.75
4	57117	110	516.75
4	57748	111	516.75
4	58371	112	516.75
4	58970	113	516.75
4	59569	114	516.75
4	60160	115	516.75
4	60743	116	516.75
4	61326	117	516.75
4	61901	118	516.75
4	62468	119	516.75
4	63019	120	516.75
4	63546	121	516.75
4	64073	122	516.75
4	64584	123	516.75
4	65087	124	516.75
4	65590	125	516.75
4	66086	126	516.75
4	66536	127	516.75
4	66897	128	516.75
4	67258	129	516.75
4	67534	130	516.75
4	67745	131	516.75
4	67895	132	516.75
4	68037	133	516.75
4	68171	134	516.75
4	68305	135	516.75
4	68439	136	516.75
4	68573	137	516.75
4	68707	138	516.75
4	68841	139	516.75
4	68926	140	516.75
4	68982	141	516.75
4	69038	142	516.75
4	69086	143	516.75
4	69134	144	516.75
4	69182	145	516.75
4	69230	146	516.75
4	69278	147	516.75
4	69326	148	516.75
4	69357	149	516.75
4	69388	150	516.75
4	69419	151	516.75
4	69450	152	516.75
4	69481	153	516.75
4	69512	154	516.75
4	69543	155	516.75
4	69574	156	516.75
4	69605	157	516.75
4	69636	158	516.75
4	69667	159	516.75
4	69698	160	516.75
4	69729	161	516.75
4	69760	162	516.75
4	69791	163	516.75
4	69822	164	516.75
4	69853	165	516.75
4	69884	166	516.75
4	69915	167	516.80330294672
4	69946	168	516.98396672646
4	69977	169	517.22825336604
4	70008	170	518.10448944388
4	70039	171	519.25766617404
4	70070	172	519.87684957133
4	70101	173	520.05
4	70132	174	520.05
4	70163	175	520.05
4	70194	176	520.05
4	70225	177	520.05
4	70256	178	520.05
4	70287	179	520.05
4	70318	180	520.05
