version 2
run General-0-20171120-11:53:21-7769
attr configname General
attr datetime 20171120-11:53:21
attr experiment General
attr inifile omnetpp.ini
attr iterationvars ""
attr iterationvarsf ""
attr measurement ""
attr network RSUExampleScenario2
attr processid 7769
attr repetition 0
attr replication #0
attr resultdir results
attr runnumber 0
attr seedset 0
param **.coreDebug false
param **.debug false
param *.**.nic.mac1609_4.bitrate 6Mbps
param *.**.nic.mac1609_4.txPower 20mW
param *.**.nic.mac1609_4.useServiceChannel false
param *.**.nic.phy80211p.analogueModels "xmldoc(\"config.xml\")"
param *.**.nic.phy80211p.antenna "xmldoc(\"antenna.xml\", \"/root/Antenna[@id='monopole']\")"
param *.**.nic.phy80211p.decider "xmldoc(\"config.xml\")"
param *.**.nic.phy80211p.sensitivity -89dBm
param *.**.nic.phy80211p.thermalNoise -110dBm
param *.**.nic.phy80211p.usePropagationDelay true
param *.**.nic.phy80211p.useThermalNoise true
param *.annotations.draw true
param *.connectionManager.drawMaxIntfDist false
param *.connectionManager.maxInterfDist 2600m
param *.connectionManager.sendDirect true
param *.manager.autoShutdown true
param *.manager.host "\"localhost\""
param *.manager.launchConfig "xmldoc(\"cross.launchd.xml\")"
param *.manager.port 9999
param *.manager.updateInterval 1s
param *.node[*0].veinsmobility.accidentCount 1
param *.node[*0].veinsmobility.accidentDuration 50s
param *.node[*0].veinsmobility.accidentStart 75s
param *.node[*].appl.beaconInterval 1s
param *.node[*].appl.dataOnSch false
param *.node[*].appl.headerLength "80 bit"
param *.node[*].appl.sendBeacons true
param *.node[*].applType "\"TraCIDemo11p\""
param *.node[*].veinsmobility.x 0
param *.node[*].veinsmobility.y 0
param *.node[*].veinsmobility.z 1.895
param *.node[*].veinsmobilityType.debug true
param *.obstacles.debug false
param *.playgroundSizeX 2500m
param *.playgroundSizeY 2500m
param *.playgroundSizeZ 50m
param *.rsu[*].appl.beaconInterval 1s
param *.rsu[*].appl.beaconUserPriority 7
param *.rsu[*].appl.dataOnSch false
param *.rsu[*].appl.dataUserPriority 5
param *.rsu[*].appl.headerLength "80 bit"
param *.rsu[*].appl.sendBeacons true
param *.rsu[*].applType "\"TraCIDemoRSU11p\""
param *.rsu[0].mobility.x 500
param *.rsu[0].mobility.y 500
param *.rsu[0].mobility.z 3

vector 4  RSUExampleScenario2.node[0].veinsmobility  posx  ETV
vector 5  RSUExampleScenario2.node[0].veinsmobility  posy  ETV
vector 6  RSUExampleScenario2.node[0].veinsmobility  speed  ETV
vector 7  RSUExampleScenario2.node[0].veinsmobility  acceleration  ETV
vector 8  RSUExampleScenario2.node[0].veinsmobility  co2emission  ETV
vector 11  RSUExampleScenario2.node[1].veinsmobility  posx  ETV
vector 12  RSUExampleScenario2.node[1].veinsmobility  posy  ETV
vector 13  RSUExampleScenario2.node[1].veinsmobility  speed  ETV
vector 14  RSUExampleScenario2.node[1].veinsmobility  acceleration  ETV
vector 15  RSUExampleScenario2.node[1].veinsmobility  co2emission  ETV
vector 18  RSUExampleScenario2.node[2].veinsmobility  posx  ETV
vector 19  RSUExampleScenario2.node[2].veinsmobility  posy  ETV
vector 25  RSUExampleScenario2.node[3].veinsmobility  posx  ETV
vector 26  RSUExampleScenario2.node[3].veinsmobility  posy  ETV
vector 20  RSUExampleScenario2.node[2].veinsmobility  speed  ETV
vector 21  RSUExampleScenario2.node[2].veinsmobility  acceleration  ETV
vector 22  RSUExampleScenario2.node[2].veinsmobility  co2emission  ETV
vector 27  RSUExampleScenario2.node[3].veinsmobility  speed  ETV
vector 28  RSUExampleScenario2.node[3].veinsmobility  acceleration  ETV
vector 29  RSUExampleScenario2.node[3].veinsmobility  co2emission  ETV
vector 32  RSUExampleScenario2.node[4].veinsmobility  posx  ETV
vector 33  RSUExampleScenario2.node[4].veinsmobility  posy  ETV
vector 39  RSUExampleScenario2.node[5].veinsmobility  posx  ETV
vector 40  RSUExampleScenario2.node[5].veinsmobility  posy  ETV
vector 34  RSUExampleScenario2.node[4].veinsmobility  speed  ETV
vector 41  RSUExampleScenario2.node[5].veinsmobility  speed  ETV
vector 35  RSUExampleScenario2.node[4].veinsmobility  acceleration  ETV
vector 36  RSUExampleScenario2.node[4].veinsmobility  co2emission  ETV
vector 42  RSUExampleScenario2.node[5].veinsmobility  acceleration  ETV
vector 43  RSUExampleScenario2.node[5].veinsmobility  co2emission  ETV
vector 46  RSUExampleScenario2.node[6].veinsmobility  posx  ETV
vector 47  RSUExampleScenario2.node[6].veinsmobility  posy  ETV
vector 53  RSUExampleScenario2.node[7].veinsmobility  posx  ETV
vector 54  RSUExampleScenario2.node[7].veinsmobility  posy  ETV
vector 48  RSUExampleScenario2.node[6].veinsmobility  speed  ETV
vector 55  RSUExampleScenario2.node[7].veinsmobility  speed  ETV
vector 49  RSUExampleScenario2.node[6].veinsmobility  acceleration  ETV
vector 50  RSUExampleScenario2.node[6].veinsmobility  co2emission  ETV
vector 56  RSUExampleScenario2.node[7].veinsmobility  acceleration  ETV
vector 57  RSUExampleScenario2.node[7].veinsmobility  co2emission  ETV
vector 60  RSUExampleScenario2.node[8].veinsmobility  posx  ETV
vector 61  RSUExampleScenario2.node[8].veinsmobility  posy  ETV
vector 67  RSUExampleScenario2.node[9].veinsmobility  posx  ETV
vector 68  RSUExampleScenario2.node[9].veinsmobility  posy  ETV
vector 62  RSUExampleScenario2.node[8].veinsmobility  speed  ETV
vector 63  RSUExampleScenario2.node[8].veinsmobility  acceleration  ETV
vector 64  RSUExampleScenario2.node[8].veinsmobility  co2emission  ETV
vector 69  RSUExampleScenario2.node[9].veinsmobility  speed  ETV
vector 70  RSUExampleScenario2.node[9].veinsmobility  acceleration  ETV
vector 71  RSUExampleScenario2.node[9].veinsmobility  co2emission  ETV
vector 74  RSUExampleScenario2.node[10].veinsmobility  posx  ETV
vector 75  RSUExampleScenario2.node[10].veinsmobility  posy  ETV
vector 76  RSUExampleScenario2.node[10].veinsmobility  speed  ETV
vector 77  RSUExampleScenario2.node[10].veinsmobility  acceleration  ETV
vector 78  RSUExampleScenario2.node[10].veinsmobility  co2emission  ETV
vector 81  RSUExampleScenario2.node[11].veinsmobility  posx  ETV
vector 82  RSUExampleScenario2.node[11].veinsmobility  posy  ETV
vector 83  RSUExampleScenario2.node[11].veinsmobility  speed  ETV
vector 88  RSUExampleScenario2.node[12].veinsmobility  posx  ETV
vector 89  RSUExampleScenario2.node[12].veinsmobility  posy  ETV
vector 84  RSUExampleScenario2.node[11].veinsmobility  acceleration  ETV
vector 85  RSUExampleScenario2.node[11].veinsmobility  co2emission  ETV
vector 90  RSUExampleScenario2.node[12].veinsmobility  speed  ETV
vector 91  RSUExampleScenario2.node[12].veinsmobility  acceleration  ETV
vector 92  RSUExampleScenario2.node[12].veinsmobility  co2emission  ETV
vector 95  RSUExampleScenario2.node[13].veinsmobility  posx  ETV
vector 96  RSUExampleScenario2.node[13].veinsmobility  posy  ETV
vector 97  RSUExampleScenario2.node[13].veinsmobility  speed  ETV
vector 98  RSUExampleScenario2.node[13].veinsmobility  acceleration  ETV
vector 99  RSUExampleScenario2.node[13].veinsmobility  co2emission  ETV
vector 102  RSUExampleScenario2.node[14].veinsmobility  posx  ETV
vector 103  RSUExampleScenario2.node[14].veinsmobility  posy  ETV
vector 104  RSUExampleScenario2.node[14].veinsmobility  speed  ETV
vector 105  RSUExampleScenario2.node[14].veinsmobility  acceleration  ETV
vector 106  RSUExampleScenario2.node[14].veinsmobility  co2emission  ETV
vector 109  RSUExampleScenario2.node[15].veinsmobility  posx  ETV
vector 110  RSUExampleScenario2.node[15].veinsmobility  posy  ETV
vector 111  RSUExampleScenario2.node[15].veinsmobility  speed  ETV
vector 112  RSUExampleScenario2.node[15].veinsmobility  acceleration  ETV
vector 113  RSUExampleScenario2.node[15].veinsmobility  co2emission  ETV
vector 116  RSUExampleScenario2.node[16].veinsmobility  posx  ETV
vector 117  RSUExampleScenario2.node[16].veinsmobility  posy  ETV
vector 118  RSUExampleScenario2.node[16].veinsmobility  speed  ETV
vector 119  RSUExampleScenario2.node[16].veinsmobility  acceleration  ETV
vector 120  RSUExampleScenario2.node[16].veinsmobility  co2emission  ETV
vector 123  RSUExampleScenario2.node[17].veinsmobility  posx  ETV
vector 124  RSUExampleScenario2.node[17].veinsmobility  posy  ETV
vector 125  RSUExampleScenario2.node[17].veinsmobility  speed  ETV
vector 126  RSUExampleScenario2.node[17].veinsmobility  acceleration  ETV
vector 127  RSUExampleScenario2.node[17].veinsmobility  co2emission  ETV
vector 130  RSUExampleScenario2.node[18].veinsmobility  posx  ETV
vector 131  RSUExampleScenario2.node[18].veinsmobility  posy  ETV
vector 132  RSUExampleScenario2.node[18].veinsmobility  speed  ETV
vector 133  RSUExampleScenario2.node[18].veinsmobility  acceleration  ETV
vector 134  RSUExampleScenario2.node[18].veinsmobility  co2emission  ETV
22	474	11	1.4805825283849
22	584	12	1.5485980461789
22	694	13	1.6951406803521
22	804	14	1.7286401767676
22	914	15	1.9816285774309
22	1118	16	2.1079527079455
22	1330	17	2.1448088260864
22	1542	18	2.1888886487075
22	1754	19	2.4157478418467
22	1966	20	2.7154739126175
22	2304	21	2.5472453318885
22	2650	22	2.7733962675778
22	2996	23	2.911902643258
22	3342	24	3.0170882744215
22	3688	25	3.2426118635445
22	4119	26	3.3086056698651
22	4631	27	3.5149210176382
22	5151	28	3.4801792897349
22	5671	29	3.8339244345112
22	6191	30	3.8885046988325
22	6812	31	4.294767575367
22	7441	32	4.219098877609
22	8070	33	4.546473068894
22	8796	34	4.5097507076956
22	9522	35	4.7895243716024
22	10373	36	5.0897825271836
22	11232	37	5.0428030240664
22	12099	38	5.1941728330073
22	12974	39	5.030719728135
22	13978	40	5.4867843295204
22	14990	41	5.4100425146917
22	16010	42	5.8020815962526
22	17038	43	5.7951331955296
22	18074	44	6.5472750531848
22	19243	45	6.6285686918518
22	20436	46	6.7382026560611
22	21661	47	7.031724838724
22	22886	48	7.1322001742615
22	24119	49	7.0726556058873
22	25489	50	4.9429794004998
22	26867	51	3.7260556243939
22	28293	52	3.7611529081944
22	29735	53	3.9128457696484
22	31185	54	3.6529532030706
22	32784	55	3.8345646532594
22	34501	56	3.8260614675471
22	36140	57	3.5886683518598
22	39045	58	3.8677801013116
22	40692	59	3.6218463301798
22	43988	60	3.7826435422689
22	45788	61	3.7254547608611
22	47797	62	3.8723759122355
22	49637	63	3.7692339059647
22	51477	64	3.6938833767321
22	53402	65	3.8307350570045
22	55359	66	3.7112042875267
22	57340	67	3.8171310954738
22	59321	68	3.7603328786354
21	474	11	0.63549781285226
21	584	12	0.55757485399023
21	694	13	0.60559704351239
21	804	14	0.52351580809802
21	914	15	0.65798013584688
21	1118	16	0.64819906047545
21	1330	17	0.58198179044761
21	1542	18	0.53856783960015
21	1754	19	0.60926991266199
21	1966	20	0.69755555372685
21	2304	21	0.54122212666087
21	2650	22	0.59510733042844
21	2996	23	0.60013933409937
21	3342	24	0.59027563878335
21	3688	25	0.62650862275623
21	4119	26	0.59899192801677
21	4631	27	0.62260476344265
21	5151	28	0.56445064726286
21	5671	29	0.63356191798113
21	6191	30	0.60385608941317
21	6812	31	0.67569751354866
21	7441	32	0.60768170608207
21	8070	33	0.65164199610241
21	8796	34	0.59915551355109
21	9522	35	0.62795216765254
21	10373	36	0.6567308557499
21	11232	37	0.6044966507796
21	12099	38	0.60025070217437
21	12974	39	0.53041590722276
21	13978	40	0.59289328781886
21	14990	41	0.54318156884981
21	16010	42	0.58771898359059
21	17038	43	0.55264114016665
21	18074	44	0.65759158648549
21	19243	45	0.63260152949018
21	20436	46	0.61433703296816
21	21661	47	0.62770097069441
21	22886	48	0.60764980950391
21	24119	49	0.56360240638255
21	25489	50	0.19795493024451
21	26867	51	-0.0041468590870508
21	28293	52	0.0016274231765436
21	29735	53	0.025863980166612
21	31185	54	-0.01668818494305
21	32784	55	0.01300308700651
21	34501	56	0.011175207579509
21	36140	57	-0.027259700130671
21	39045	58	0.018431204939258
21	40692	59	-0.021631527934222
21	43988	60	0.0049112811125802
21	45788	61	-0.0044296148605625
21	47797	62	0.019265065100043
21	49637	63	0.0020607195422038
21	51477	64	-0.010085067907347
21	53402	65	0.012194618955256
21	55359	66	-0.0073830840084703
21	57340	67	0.0098444075509896
21	59321	68	0.00039991501718717
20	364	10	1.2017359573857
20	474	11	1.837233770238
20	584	12	2.3948086242282
20	694	13	3.0004056677406
20	804	14	3.5239214758386
20	914	15	4.1819016116855
20	1118	16	4.830100672161
20	1330	17	5.4120824626086
20	1542	18	5.9506503022087
20	1754	19	6.5599202148707
20	1966	20	7.2574757685975
20	2304	21	7.7986978952584
20	2650	22	8.3938052256868
20	2996	23	8.9939445597862
20	3342	24	9.5842201985696
20	3688	25	10.210728821326
20	4119	26	10.809720749343
20	4631	27	11.432325512785
20	5151	28	11.996776160048
20	5671	29	12.630338078029
20	6191	30	13.234194167442
20	6812	31	13.909891680991
20	7441	32	14.517573387073
20	8070	33	15.169215383176
20	8796	34	15.768370896727
20	9522	35	16.396323064379
20	10373	36	17.053053920129
20	11232	37	17.657550570909
20	12099	38	18.257801273083
20	12974	39	18.788217180306
20	13978	40	19.381110468125
20	14990	41	19.924292036974
20	16010	42	20.512011020565
20	17038	43	21.064652160732
20	18074	44	21.722243747217
20	19243	45	22.354845276707
20	20436	46	22.969182309676
20	21661	47	23.59688328037
20	22886	48	24.204533089874
20	24119	49	24.768135496256
20	25489	50	24.966090426501
20	26867	51	24.961943567414
20	28293	52	24.96357099059
20	29735	53	24.989434970757
20	31185	54	24.972746785814
20	32784	55	24.98574987282
20	34501	56	24.9969250804
20	36140	57	24.969665380269
20	39045	58	24.988096585209
20	40692	59	24.966465057274
20	43988	60	24.971376338387
20	45788	61	24.966946723526
20	47797	62	24.986211788626
20	49637	63	24.988272508169
20	51477	64	24.978187440261
20	53402	65	24.990382059217
20	55359	66	24.982998975208
20	57340	67	24.992843382759
20	59321	68	24.993243297776
19	295	9	516.75
19	364	10	516.75
19	474	11	516.75
19	584	12	516.75
19	694	13	516.75
19	804	14	516.75
19	914	15	516.75
19	1118	16	516.75
19	1330	17	516.75
19	1542	18	516.75
19	1754	19	516.75
19	1966	20	516.75
19	2304	21	516.75
19	2650	22	516.75
19	2996	23	516.75
19	3342	24	516.75
19	3688	25	520.05
19	4119	26	520.05
19	4631	27	520.05
19	5151	28	520.05
19	5671	29	520.05
19	6191	30	520.05
19	6812	31	520.05
19	7441	32	520.05
19	8070	33	523.35
19	8796	34	523.35
19	9522	35	523.35
19	10373	36	523.35
19	11232	37	523.35
19	12099	38	523.35
19	12974	39	523.35
19	13978	40	523.35
19	14990	41	523.35
19	16010	42	523.35
19	17038	43	523.35
19	18074	44	523.35
19	19243	45	523.35
19	20436	46	523.35
19	21661	47	523.35
19	22886	48	523.35
19	24119	49	523.35
19	25489	50	536.93897896801
19	26867	51	561.88460351744
19	28293	52	586.85728488784
19	29735	53	611.83864506634
19	31185	54	636.82166755865
19	32784	55	661.80298441515
19	34501	56	686.78354985895
19	36140	57	711.7627092011
19	39045	58	736.74433877357
19	40692	59	761.72005964426
19	43988	60	786.70097238748
19	45788	61	811.67903454756
19	47797	62	836.65785844484
19	49637	63	861.64229195216
19	51477	64	886.6170301614
19	53402	65	911.59832018333
19	55359	66	936.58133169155
19	57340	67	961.56209986066
19	59321	68	986.54350050293
18	295	9	1014.5726307437
18	364	10	1014.5726307437
18	474	11	1013.6294592171
18	584	12	1012.077388231
18	694	13	1009.9372551362
18	804	14	1007.1999595949
18	914	15	1003.9258445591
18	1118	16	1000.0419223614
18	1330	17	995.49625667856
18	1542	18	990.35663176068
18	1754	19	984.62960295713
18	1966	20	978.35419967854
18	2304	21	971.40672176084
18	2650	22	963.83905498862
18	2996	23	955.71667012942
18	3342	24	946.99842720901
18	3688	25	937.67953936164
18	4119	26	927.73409281313
18	4631	27	917.19844752013
18	5151	28	906.03679512188
18	5671	29	894.28753269062
18	6191	30	881.96497749281
18	6812	31	869.00459105769
18	7441	32	855.41154097103
18	8070	33	841.17135802792
18	8796	34	826.28605702543
18	9522	35	810.81676997954
18	10373	36	794.68785092238
18	11232	37	777.91352466475
18	12099	38	760.54695721667
18	12974	39	742.54965105598
18	13978	40	723.99438760233
18	14990	41	704.87685022649
18	16010	42	685.19428083457
18	17038	43	664.93652772611
18	18074	44	644.10669314737
18	19243	45	622.68619537733
18	20436	46	600.6137011948
18	21661	47	577.92480871778
18	22886	48	554.61418028737
18	24119	49	530.68671417258
18	25489	50	516.75
18	26867	51	516.75
18	28293	52	516.75
18	29735	53	516.75
18	31185	54	516.75
18	32784	55	516.75
18	34501	56	516.75
18	36140	57	516.75
18	39045	58	516.75
18	40692	59	516.75
18	43988	60	516.75
18	45788	61	516.75
18	47797	62	516.75
18	49637	63	516.75
18	51477	64	516.75
18	53402	65	516.75
18	55359	66	516.75
18	57340	67	516.75
18	59321	68	516.75
vector 137  RSUExampleScenario2.node[19].veinsmobility  posx  ETV
vector 138  RSUExampleScenario2.node[19].veinsmobility  posy  ETV
vector 139  RSUExampleScenario2.node[19].veinsmobility  speed  ETV
vector 140  RSUExampleScenario2.node[19].veinsmobility  acceleration  ETV
vector 141  RSUExampleScenario2.node[19].veinsmobility  co2emission  ETV
vector 144  RSUExampleScenario2.node[20].veinsmobility  posx  ETV
vector 145  RSUExampleScenario2.node[20].veinsmobility  posy  ETV
vector 146  RSUExampleScenario2.node[20].veinsmobility  speed  ETV
36	1330	17	1.4059100744786
36	1542	18	1.5218413744614
36	1754	19	1.6627945834643
36	1966	20	1.7976035473874
36	2304	21	1.9533814637098
36	2650	22	2.0295101007757
36	2996	23	2.1058783582769
36	3342	24	2.2976225123182
36	3688	25	2.3808583029694
36	4119	26	2.4488012997932
36	4631	27	2.5416194484818
36	5151	28	2.7581551765658
36	5671	29	2.8826773999017
36	6191	30	3.0117335172208
36	6812	31	3.2670664797409
36	7441	32	3.1953750774249
36	8070	33	3.2847369631966
36	8796	34	3.6107522087615
36	9522	35	3.83120380793
36	10373	36	3.7636484071983
36	11232	37	3.693959928668
36	12099	38	4.3667555339009
36	12974	39	4.1240811319779
36	13978	40	4.5635023741026
36	14990	41	4.5240711176729
36	16010	42	4.4682119479616
36	17038	43	4.7130174812356
36	18074	44	4.8457070465297
36	19243	45	5.4389501427133
36	20436	46	5.1698609028307
36	21661	47	5.7318330080605
36	22886	48	5.7447663593035
36	24119	49	6.005100036417
36	25489	50	6.0454411415209
36	26867	51	6.0435569102458
36	28293	52	6.2107103365488
36	29735	53	6.7593334903128
36	31185	54	6.9102241334038
36	32784	55	6.9745050313213
36	34501	56	7.2102565763362
36	36140	57	4.7303432261003
36	39045	58	3.745739641986
36	40692	59	3.8632308151091
36	43988	60	3.7391357367139
36	45788	61	3.8710280847629
36	47797	62	3.5596629061665
36	49637	63	3.9566335906298
36	51477	64	3.6762860666468
36	53402	65	3.7973629696922
36	55359	66	3.7476202207284
36	57340	67	3.7762811870463
36	59321	68	3.7655107710654
36	61294	69	3.6414045288352
36	63307	70	3.7376435844614
36	65336	71	3.6995633690182
36	67349	72	3.8082105222333
36	69354	73	3.8618001628815
36	71351	74	3.8034651921058
36	73501	75	3.6410703601325
35	1330	17	0.61123291578144
35	1542	18	0.60535126163624
35	1754	19	0.63149815293029
35	1966	20	0.63795874656178
35	2304	21	0.65868417887949
35	2650	22	0.6109691631794
35	2996	23	0.57871726265177
35	3342	24	0.62729974273592
35	3688	25	0.59987565105781
35	4119	26	0.57077944441699
35	4631	27	0.56009499782696
35	5151	28	0.60797436210327
35	5671	29	0.60537426525727
35	6191	30	0.60441163164564
35	6812	31	0.65063283552415
35	7441	32	0.57040013751947
35	8070	33	0.55826225035824
35	8796	34	0.62461955200881
35	9522	35	0.64644863085821
35	10373	36	0.57905432900414
35	11232	37	0.52004350447096
35	12099	38	0.67172604059801
35	12974	39	0.56137861449271
35	13978	40	0.6372458517924
35	14990	41	0.58598944232799
35	16010	42	0.53661464048547
35	17038	43	0.56112644338979
35	18074	44	0.55730243503114
35	19243	45	0.65147107779978
35	20436	46	0.55555563221684
35	21661	47	0.63656906965188
35	22886	48	0.60076170760205
35	24119	49	0.61488525484687
35	25489	50	0.58633779047056
35	26867	51	0.55256027905269
35	28293	52	0.55112913107498
35	29735	53	0.6140898294933
35	31185	54	0.60378141657448
35	32784	55	0.57978495806454
35	34501	56	0.58455977257339
35	36140	57	0.1626373259461
35	39045	58	-0.00097208636812951
35	40692	59	0.017886113282295
35	43988	60	-0.0026287270430494
35	45788	61	0.0185828475561
35	47797	62	-0.031966414693741
35	49637	63	0.032761841537429
35	51477	64	-0.013289130739867
35	53402	65	0.0065745748300117
35	55359	66	-0.0016243699844942
35	57340	67	0.003022909555586
35	59321	68	0.0011910246033189
35	61294	69	-0.018737384239209
35	63307	70	-0.0026518554892405
35	65336	71	-0.0086637186817811
35	67349	72	0.0090581924747681
35	69354	73	0.01731361686252
35	71351	74	0.0073556094989158
35	73501	75	-0.018918595239519
34	1118	16	0.90037707816661
34	1330	17	1.511609993948
34	1542	18	2.1169612555843
34	1754	19	2.7484594085146
34	1966	20	3.3864181550764
34	2304	21	4.0451023339558
34	2650	22	4.6560714971352
34	2996	23	5.234788759787
34	3342	24	5.8620885025229
34	3688	25	6.4619641535807
34	4119	26	7.0327435979977
34	4631	27	7.5928385958247
34	5151	28	8.200812957928
34	5671	29	8.8061872231852
34	6191	30	9.4105988548309
34	6812	31	10.061231690355
34	7441	32	10.631631827874
34	8070	33	11.189894078233
34	8796	34	11.814513630242
34	9522	35	12.4609622611
34	10373	36	13.040016590104
34	11232	37	13.560060094575
34	12099	38	14.231786135173
34	12974	39	14.793164749666
34	13978	40	15.430410601458
34	14990	41	16.016400043786
34	16010	42	16.553014684271
34	17038	43	17.114141127661
34	18074	44	17.671443562692
34	19243	45	18.322914640492
34	20436	46	18.878470272709
34	21661	47	19.515039342361
34	22886	48	20.115801049963
34	24119	49	20.73068630481
34	25489	50	21.31702409528
34	26867	51	21.869584374333
34	28293	52	22.420713505408
34	29735	53	23.034803334901
34	31185	54	23.638584751476
34	32784	55	24.21836970954
34	34501	56	24.802929482114
34	36140	57	24.96556680806
34	39045	58	24.964594721692
34	40692	59	24.982480834974
34	43988	60	24.979852107931
34	45788	61	24.998434955487
34	47797	62	24.966468540793
34	49637	63	24.999230382331
34	51477	64	24.985941251591
34	53402	65	24.992515826421
34	55359	66	24.990891456436
34	57340	67	24.993914365992
34	59321	68	24.995105390595
34	61294	69	24.976368006356
34	63307	70	24.973716150867
34	65336	71	24.965052432185
34	67349	72	24.97411062466
34	69354	73	24.991424241522
34	71351	74	24.998779851021
34	73501	75	24.979861255782
33	914	15	516.75
33	1118	16	516.75
33	1330	17	516.75
33	1542	18	516.75
33	1754	19	516.75
33	1966	20	516.75
33	2304	21	516.75
33	2650	22	516.75
33	2996	23	516.75
33	3342	24	516.75
33	3688	25	516.75
33	4119	26	516.75
33	4631	27	516.75
33	5151	28	516.75
33	5671	29	516.75
33	6191	30	516.75
33	6812	31	520.05
33	7441	32	520.05
33	8070	33	520.05
33	8796	34	520.05
33	9522	35	520.05
33	10373	36	520.05
33	11232	37	520.05
33	12099	38	520.05
33	12974	39	523.35
33	13978	40	523.35
33	14990	41	523.35
33	16010	42	523.35
33	17038	43	523.35
33	18074	44	523.35
33	19243	45	523.35
33	20436	46	523.35
33	21661	47	523.35
33	22886	48	523.35
33	24119	49	523.35
33	25489	50	523.35
33	26867	51	523.35
33	28293	52	523.35
33	29735	53	523.35
33	31185	54	523.35
33	32784	55	523.35
33	34501	56	524.88582759918
33	36140	57	548.54321352522
33	39045	58	573.49866312227
33	40692	59	598.48281605564
33	43988	60	623.46017570823
33	45788	61	648.4456464787
33	47797	62	673.42355431926
33	49637	63	698.40129093755
33	51477	64	723.38386023171
33	53402	65	748.36104920321
33	55359	66	773.34281249239
33	57340	67	798.325366867
33	59321	68	823.30614445356
33	61294	69	848.28881241272
33	63307	70	873.27407090678
33	65336	71	898.25370112551
33	67349	72	923.24081042493
33	69354	73	948.22118866436
33	71351	74	973.19859686872
33	73501	75	998.17991859302
32	914	15	1014.8257787475
32	1118	16	1014.8257787475
32	1330	17	1014.1866934449
32	1542	18	1012.9466583309
32	1754	19	1011.0937998712
32	1966	20	1008.6401412022
32	2304	21	1005.5466775584
32	2650	22	1001.8043291669
32	2996	23	997.42324243766
32	3342	24	992.47032503856
32	3688	25	986.89576017595
32	4119	26	980.69638933476
32	4631	27	973.91476148457
32	5151	28	966.56805961569
32	5671	29	958.65066641424
32	6191	30	950.1270873519
32	6812	31	941.00423814382
32	7441	32	931.23546925676
32	8070	33	920.86701453476
32	8796	34	909.93923616609
32	9522	35	898.41198624405
32	10373	36	886.22919761625
32	11232	37	873.46908016283
32	12099	38	860.14717217703
32	12974	39	846.20872592711
32	13978	40	831.67278132573
32	14990	41	816.53568455691
32	16010	42	800.78396331274
32	17038	43	784.48305291867
32	18074	44	767.61473342012
32	19243	45	750.20009093333
32	20436	46	732.18244693319
32	21661	47	713.56855338586
32	22886	48	694.33875234571
32	24119	49	674.48886382806
32	25489	50	654.04942589212
32	26867	51	632.99134424622
32	28293	52	611.35977586047
32	29735	53	589.19198721695
32	31185	54	566.42457604011
32	32784	55	543.04676577544
32	34501	56	519.33257008208
32	36140	57	516.75
32	39045	58	516.75
32	40692	59	516.75
32	43988	60	516.75
32	45788	61	516.75
32	47797	62	516.75
32	49637	63	516.75
32	51477	64	516.75
32	53402	65	516.75
32	55359	66	516.75
32	57340	67	516.75
32	59321	68	516.75
32	61294	69	516.75
32	63307	70	516.75
32	65336	71	516.75
32	67349	72	516.75
32	69354	73	516.75
32	71351	74	516.75
32	73501	75	516.75
vector 147  RSUExampleScenario2.node[20].veinsmobility  acceleration  ETV
vector 148  RSUExampleScenario2.node[20].veinsmobility  co2emission  ETV
vector 151  RSUExampleScenario2.node[21].veinsmobility  posx  ETV
vector 152  RSUExampleScenario2.node[21].veinsmobility  posy  ETV
vector 153  RSUExampleScenario2.node[21].veinsmobility  speed  ETV
vector 154  RSUExampleScenario2.node[21].veinsmobility  acceleration  ETV
vector 155  RSUExampleScenario2.node[21].veinsmobility  co2emission  ETV
vector 158  RSUExampleScenario2.node[22].veinsmobility  posx  ETV
vector 159  RSUExampleScenario2.node[22].veinsmobility  posy  ETV
vector 160  RSUExampleScenario2.node[22].veinsmobility  speed  ETV
vector 161  RSUExampleScenario2.node[22].veinsmobility  acceleration  ETV
vector 162  RSUExampleScenario2.node[22].veinsmobility  co2emission  ETV
71	5151	28	1.3795712338035
71	5671	29	1.4994314181501
71	6191	30	1.6069914575882
71	6812	31	1.7320153120365
71	7441	32	1.834480029448
71	8070	33	2.0173257331511
71	8796	34	2.0111752832791
71	9522	35	2.2183534139581
71	10373	36	2.3483383304081
71	11232	37	2.4234411258006
71	12099	38	2.555753290987
71	12974	39	2.7965760365085
71	13978	40	2.7230548239255
71	14990	41	2.9363773353544
71	16010	42	3.0244753551078
71	17038	43	3.3130886472437
71	18074	44	3.4167958348026
71	19243	45	3.4113314337478
71	20436	46	3.855715070593
71	21661	47	3.9097411070197
71	22886	48	3.7691056520246
71	24119	49	3.9918124020717
71	25489	50	4.3464550101302
71	26867	51	4.5114976583592
71	28293	52	4.4688270304848
71	29735	53	4.6767876371498
71	31185	54	4.952048120755
71	32784	55	5.1045956778658
71	34501	56	4.9947176196994
71	36140	57	5.3163243529934
71	39045	58	5.759088747975
71	40692	59	5.8721842529052
71	43988	60	6.1180207618468
71	45788	61	6.4435366159405
71	47797	62	6.5048157649297
71	49637	63	6.6234747674228
71	51477	64	6.3657813357064
71	53402	65	6.8129479850214
71	55359	66	7.1618080652895
71	57340	67	7.3480589522109
71	59321	68	3.7912333182353
71	61294	69	3.857733561102
71	63307	70	3.710617067911
71	65336	71	3.7173179628165
71	67349	72	3.7840603817171
71	69354	73	3.8255038884162
71	71351	74	3.8075787793463
71	73501	75	3.5454336153347
71	75676	76	3.9125682047269
71	77777	77	3.6938805958449
71	79862	78	3.8115024421356
71	82100	79	3.737389652222
71	84354	80	3.7006943380886
71	86608	81	3.6875679012016
71	88870	82	3.8042198002043
71	91068	83	3.7058821067136
71	93423	84	3.792457332336
71	95794	85	3.9118978057401
71	98173	86	3.7360649173752
70	5151	28	0.62163719307631
70	5671	29	0.61609297486953
70	6191	30	0.59834800797515
70	6812	31	0.60718638006598
70	7441	32	0.59118497160263
70	8070	33	0.64463462500833
70	8796	34	0.54407354222611
70	9522	35	0.61294247294776
70	10373	36	0.61529372441582
70	11232	37	0.58651432983577
70	12099	38	0.59307125109248
70	12974	39	0.64808265038766
70	13978	40	0.55267928653397
70	14990	41	0.59455450913869
70	16010	42	0.57875885642134
70	17038	43	0.63899608884007
70	18074	44	0.62313482243568
70	19243	45	0.57316181066446
70	20436	46	0.67227674764581
70	21661	47	0.63752578460612
70	22886	48	0.55155035610311
70	24119	49	0.57756949853152
70	25489	50	0.63411662945524
70	26867	51	0.63365172010846
70	28293	52	0.58169526851736
70	29735	53	0.5949929706659
70	31185	54	0.62117388597688
70	32784	55	0.61622969117015
70	34501	56	0.55512466995975
70	36140	57	0.58990851319394
70	39045	58	0.64410378639584
70	40692	59	0.62705707579849
70	43988	60	0.63613500990903
70	45788	61	0.6578241438791
70	47797	62	0.62936094508505
70	49637	63	0.61310261755249
70	51477	64	0.53432390927335
70	53402	65	0.57905910267493
70	55359	66	0.60271449367514
70	57340	67	0.5976964632325
70	59321	68	0.0063104794360669
70	61294	69	0.016733969151975
70	63307	70	-0.0074240458011623
70	65336	71	-0.0060888608545078
70	67349	72	0.0048215717356648
70	69354	73	0.011285749590026
70	71351	74	0.0080125233903523
70	73501	75	-0.034286148995161
70	75676	76	0.025760575700552
70	77777	77	-0.010179457338527
70	79862	78	0.0090230148099337
70	82100	79	-0.0031669246871004
70	84354	80	-0.0089356470014899
70	86608	81	-0.010726921269672
70	88870	82	0.0083504398819052
70	91068	83	-0.007706644264978
70	93423	84	0.006442978251723
70	95794	85	0.025330794313923
70	98173	86	-0.0037177314888694
69	4631	27	0.73828551514132
69	5151	28	1.3599227082176
69	5671	29	1.9760156830872
69	6191	30	2.5743636910623
69	6812	31	3.1815500711283
69	7441	32	3.7727350427309
69	8070	33	4.4173696677393
69	8796	34	4.9614432099654
69	9522	35	5.5743856829131
69	10373	36	6.1896794073289
69	11232	37	6.7761937371647
69	12099	38	7.3692649882572
69	12974	39	8.0173476386449
69	13978	40	8.5700269251788
69	14990	41	9.1645814343175
69	16010	42	9.7433402907389
69	17038	43	10.382336379579
69	18074	44	11.005471202015
69	19243	45	11.578633012679
69	20436	46	12.250909760325
69	21661	47	12.888435544931
69	22886	48	13.439985901034
69	24119	49	14.017555399566
69	25489	50	14.651672029021
69	26867	51	15.285323749129
69	28293	52	15.867019017647
69	29735	53	16.462011988313
69	31185	54	17.083185874289
69	32784	55	17.69941556546
69	34501	56	18.254540235419
69	36140	57	18.844448748613
69	39045	58	19.488552535009
69	40692	59	20.115609610808
69	43988	60	20.751744620717
69	45788	61	21.409568764596
69	47797	62	22.038929709681
69	49637	63	22.652032327233
69	51477	64	23.186356236507
69	53402	65	23.765415339182
69	55359	66	24.368129832857
69	57340	67	24.965826296089
69	59321	68	24.972136775525
69	61294	69	24.988870744677
69	63307	70	24.981446698876
69	65336	71	24.975357838022
69	67349	72	24.980179409757
69	69354	73	24.991465159347
69	71351	74	24.999477682738
69	73501	75	24.965191533742
69	75676	76	24.990952109443
69	77777	77	24.980772652104
69	79862	78	24.989795666914
69	82100	79	24.986628742227
69	84354	80	24.977693095226
69	86608	81	24.966966173956
69	88870	82	24.975316613838
69	91068	83	24.967609969573
69	93423	84	24.974052947825
69	95794	85	24.999383742139
69	98173	86	24.99566601065
68	4119	26	516.75
68	4631	27	516.75
68	5151	28	516.75
68	5671	29	516.75
68	6191	30	516.75
68	6812	31	516.75
68	7441	32	516.75
68	8070	33	516.75
68	8796	34	516.75
68	9522	35	516.75
68	10373	36	516.75
68	11232	37	516.75
68	12099	38	516.75
68	12974	39	516.75
68	13978	40	516.75
68	14990	41	516.75
68	16010	42	520.05
68	17038	43	520.05
68	18074	44	520.05
68	19243	45	520.05
68	20436	46	520.05
68	21661	47	520.05
68	22886	48	520.05
68	24119	49	520.05
68	25489	50	523.35
68	26867	51	523.35
68	28293	52	523.35
68	29735	53	523.35
68	31185	54	523.35
68	32784	55	523.35
68	34501	56	523.35
68	36140	57	523.35
68	39045	58	523.35
68	40692	59	523.35
68	43988	60	523.35
68	45788	61	523.35
68	47797	62	523.35
68	49637	63	523.35
68	51477	64	523.35
68	53402	65	523.35
68	55359	66	523.35
68	57340	67	523.59167588719
68	59321	68	543.96541867071
68	61294	69	568.94715972248
68	63307	70	593.93243295653
68	65336	71	618.91055490776
68	67349	72	643.89394318294
68	69354	73	668.8733881972
68	71351	74	693.85671611611
68	73501	75	718.83489108365
68	75676	76	743.81007924554
68	77777	77	768.79248463009
68	79862	78	793.76817585591
68	82100	79	818.75040112036
68	84354	80	843.73425144332
68	86608	81	868.7129573713
68	88870	82	893.691933169
68	91068	83	918.67396942183
68	93423	84	943.65518587608
68	95794	85	968.62745047574
68	98173	86	993.60528524547
67	4119	26	1014.8922959536
67	4631	27	1014.8922959536
67	5151	28	1014.427496414
67	5671	29	1013.3279971793
67	6191	30	1011.6115271641
67	6812	31	1009.3012628731
67	7441	32	1006.3847386917
67	8070	33	1002.8670368861
67	8796	34	998.74732566069
67	9522	35	994.03253983274
67	10373	36	988.74225953925
67	11232	37	982.82799042618
67	12099	38	976.31907111534
67	12974	39	969.2109286716
67	13978	40	961.48106167265
67	14990	41	953.16579181504
67	16010	42	944.28225542203
67	17038	43	934.7941250887
67	18074	44	924.69381490007
67	19243	45	913.97191120309
67	20436	46	902.64882998528
67	21661	47	890.70682602693
67	22886	48	878.10347720194
67	24119	49	864.9139374931
67	25489	50	851.15579650854
67	26867	51	836.80406615165
67	28293	52	821.79769649855
67	29735	53	806.18311058907
67	31185	54	789.98914901691
67	32784	55	773.186587605
67	34501	56	755.74749044427
67	36140	57	737.74518565741
67	39045	58	719.16741426505
67	40692	59	699.97413363259
67	43988	60	680.13402254993
67	45788	61	659.67713719976
67	47797	62	638.56144814509
67	49637	63	616.80314785614
67	51477	64	594.43445439443
67	53402	65	571.46807711097
67	55359	66	547.97191039748
67	57340	67	523.88823559574
67	59321	68	516.75
67	61294	69	516.75
67	63307	70	516.75
67	65336	71	516.75
67	67349	72	516.75
67	69354	73	516.75
67	71351	74	516.75
67	73501	75	516.75
67	75676	76	516.75
67	77777	77	516.75
67	79862	78	516.75
67	82100	79	516.75
67	84354	80	516.75
67	86608	81	516.75
67	88870	82	516.75
67	91068	83	516.75
67	93423	84	516.75
67	95794	85	516.75
67	98173	86	516.75
vector 165  RSUExampleScenario2.node[23].veinsmobility  posx  ETV
vector 166  RSUExampleScenario2.node[23].veinsmobility  posy  ETV
vector 167  RSUExampleScenario2.node[23].veinsmobility  speed  ETV
vector 168  RSUExampleScenario2.node[23].veinsmobility  acceleration  ETV
vector 169  RSUExampleScenario2.node[23].veinsmobility  co2emission  ETV
85	9522	35	1.4421407414501
85	10373	36	1.5490838180458
85	11232	37	1.7133710434374
85	12099	38	1.8238626883292
85	12974	39	1.9604161709915
85	13978	40	2.1205897918391
85	14990	41	2.1267204376766
85	16010	42	2.242610399512
85	17038	43	2.2943812291898
85	18074	44	2.585516295192
85	19243	45	2.7695598332819
85	20436	46	2.685597398445
85	21661	47	2.9558273362925
85	22886	48	3.0784927539253
85	24119	49	3.1486143701114
85	25489	50	3.1765017349727
85	26867	51	3.3222154939047
85	28293	52	3.6081184129266
85	29735	53	3.7517655155976
85	31185	54	3.8309918133606
85	32784	55	3.9746718136287
85	34501	56	4.0183087271937
85	36140	57	4.0984264757063
85	39045	58	4.5463954210074
85	40692	59	4.4161329869152
85	43988	60	4.845230995859
85	45788	61	4.7834105855071
85	47797	62	4.8255258358112
85	49637	63	5.369927847901
85	51477	64	5.4740891788321
85	53402	65	5.4490776381373
85	55359	66	5.5154177446751
85	57340	67	5.929187871647
85	59321	68	5.9058364457461
85	61294	69	6.0523565258196
85	63307	70	6.3147543548935
85	65336	71	6.6216995458519
85	67349	72	7.0392212124062
85	69354	73	7.4264075763988
85	71351	74	7.1893802617057
85	73501	75	4.3052893148441
85	75676	76	3.8532971316132
85	77777	77	3.8496907267964
85	79862	78	3.7278212057013
85	82100	79	3.6564848397777
85	84354	80	3.8260324524601
85	86608	81	3.8308981438136
85	88870	82	3.6904439135863
85	91068	83	3.6027070516235
85	93423	84	3.9592612652454
85	95794	85	3.7505261360409
85	98173	86	3.7496592275784
85	100512	87	3.7896794861505
85	102718	88	3.6615591902891
85	105025	89	3.8451384497462
85	107340	90	3.7023760221749
85	109679	91	3.8153791542098
85	112018	92	3.6285411190489
84	9522	35	0.60613903836347
84	10373	36	0.59076218603179
84	11232	37	0.64679507528432
84	12099	38	0.62483440922573
84	12974	39	0.63281354072504
84	13978	40	0.65426408033818
84	14990	41	0.56651767992415
84	16010	42	0.57023802132346
84	17038	43	0.53617043340579
84	18074	44	0.63477128595114
84	19243	45	0.65686511081643
84	20436	46	0.55362070162781
84	21661	47	0.62031202344224
84	22886	48	0.61445099310018
84	24119	49	0.58938299774192
84	25489	50	0.55304105913267
84	26867	51	0.56210459793918
84	28293	52	0.61430323455482
84	29735	53	0.61356015896425
84	31185	54	0.59327172916383
84	32784	55	0.59343177047559
84	34501	56	0.56575253263116
84	36140	57	0.55067846384831
84	39045	58	0.629502548147
84	40692	59	0.55704193980433
84	43988	60	0.62406131125985
84	45788	61	0.57091509779913
84	47797	62	0.54622535936532
84	49637	63	0.63050929070448
84	51477	64	0.61345353204755
84	53402	65	0.57189168790354
84	55359	66	0.55196386331691
84	57340	67	0.59913892365991
84	59321	68	0.56020372653378
84	61294	69	0.55510930291375
84	63307	70	0.5701282396633
84	65336	71	0.59047378277404
84	67349	72	0.6262324648816
84	69354	73	0.65242804465814
84	71351	74	0.57698220939374
84	73501	75	0.092088190318133
84	75676	76	0.016346742212772
84	77777	77	0.015180482976142
84	79862	78	-0.0048729986697467
84	82100	79	-0.016135660558938
84	84354	80	0.011602900922298
84	86608	81	0.011965418728067
84	88870	82	-0.010951473787426
84	91068	83	-0.024641171162948
84	93423	84	0.033357940604908
84	95794	85	-0.0012479818426065
84	98173	86	-0.0013426350895323
84	100512	87	0.0051127755362543
84	102718	88	-0.015591067634521
84	105025	89	0.014364275801928
84	107340	90	-0.0090065440908091
84	109679	91	0.0094092938490213
84	112018	92	-0.02085659649223
83	8796	34	1.1007474655278
83	9522	35	1.7068865038913
83	10373	36	2.2976486899231
83	11232	37	2.9444437652074
83	12099	38	3.5692781744331
83	12974	39	4.2020917151581
83	13978	40	4.8563557954963
83	14990	41	5.4228734754205
83	16010	42	5.9931114967439
83	17038	43	6.5292819301497
83	18074	44	7.1640532161009
83	19243	45	7.8209183269173
83	20436	46	8.3745390285451
83	21661	47	8.9948510519873
83	22886	48	9.6093020450875
83	24119	49	10.198685042829
83	25489	50	10.751726101962
83	26867	51	11.313830699901
83	28293	52	11.928133934456
83	29735	53	12.54169409342
83	31185	54	13.134965822584
83	32784	55	13.72839759306
83	34501	56	14.294150125691
83	36140	57	14.844828589539
83	39045	58	15.474331137686
83	40692	59	16.031373077491
83	43988	60	16.65543438875
83	45788	61	17.22634948655
83	47797	62	17.772574845915
83	49637	63	18.403084136619
83	51477	64	19.016537668667
83	53402	65	19.58842935657
83	55359	66	20.140393219887
83	57340	67	20.739532143547
83	59321	68	21.299735870081
83	61294	69	21.854845172995
83	63307	70	22.424973412658
83	65336	71	23.015447195432
83	67349	72	23.641679660314
83	69354	73	24.294107704972
83	71351	74	24.871089914366
83	73501	75	24.963178104684
83	75676	76	24.979524846897
83	77777	77	24.994705329873
83	79862	78	24.989832331203
83	82100	79	24.973696670644
83	84354	80	24.985299571566
83	86608	81	24.997264990294
83	88870	82	24.986313516507
83	91068	83	24.961672345344
83	93423	84	24.995030285949
83	95794	85	24.993782304106
83	98173	86	24.992439669017
83	100512	87	24.997552444553
83	102718	88	24.981961376918
83	105025	89	24.99632565272
83	107340	90	24.98731910863
83	109679	91	24.996728402479
83	112018	92	24.975871805986
82	8070	33	516.75
82	8796	34	516.75
82	9522	35	516.75
82	10373	36	516.75
82	11232	37	516.75
82	12099	38	516.75
82	12974	39	516.75
82	13978	40	516.75
82	14990	41	516.75
82	16010	42	516.75
82	17038	43	516.75
82	18074	44	516.75
82	19243	45	516.75
82	20436	46	516.75
82	21661	47	516.75
82	22886	48	520.05
82	24119	49	520.05
82	25489	50	520.05
82	26867	51	520.05
82	28293	52	520.05
82	29735	53	520.05
82	31185	54	520.05
82	32784	55	520.05
82	34501	56	520.05
82	36140	57	523.35
82	39045	58	523.35
82	40692	59	523.35
82	43988	60	523.35
82	45788	61	523.35
82	47797	62	523.35
82	49637	63	523.35
82	51477	64	523.35
82	53402	65	523.35
82	55359	66	523.35
82	57340	67	523.35
82	59321	68	523.35
82	61294	69	523.35
82	63307	70	523.35
82	65336	71	523.35
82	67349	72	523.35
82	69354	73	523.35
82	71351	74	528.58247376835
82	73501	75	553.1560967792
82	75676	76	578.12572790303
82	77777	77	603.10602417682
82	79862	78	628.08768257631
82	82100	79	653.07705959164
82	84354	80	678.06169858684
82	86608	81	703.04153335131
82	88870	82	728.02231356317
82	91068	83	753.00613068309
82	93423	84	777.98656341624
82	95794	85	802.96475446034
82	98173	86	827.94492122299
82	100512	87	852.93000769557
82	102718	88	877.91276881983
82	105025	89	902.89548106653
82	107340	90	927.87453839772
82	109679	91	952.8581333169
82	112018	92	977.84083869876
81	8070	33	1014.6932581616
81	8796	34	1014.6932581616
81	9522	35	1013.852283327
81	10373	36	1012.4044182361
81	11232	37	1010.3836839762
81	12099	38	1007.7146913969
81	12974	39	1004.417498241
81	13978	40	1000.500959087
81	14990	41	995.95001049542
81	16010	42	990.77378310192
81	17038	43	985.05213816886
81	18074	44	978.76444461433
81	19243	45	971.88707982646
81	20436	46	964.37108141616
81	21661	47	956.2571160988
81	22886	48	947.55942078884
81	24119	49	938.23095363581
81	25489	50	928.28588182347
81	26867	51	917.78342938769
81	28293	52	906.71928638093
81	29735	53	895.04990283366
81	31185	54	882.77295843052
81	32784	55	869.91797089722
81	34501	56	856.44783572629
81	36140	57	842.3991281673
81	39045	58	827.8197655937
81	40692	59	812.62301426398
81	43988	60	796.85850973842
81	45788	61	780.48916888526
81	47797	62	763.53386538564
81	49637	63	746.00572720959
81	51477	64	727.88694588047
81	53402	65	709.16379478356
81	55359	66	689.82544796524
81	57340	67	669.94165474085
81	59321	68	649.46864159185
81	61294	69	628.43299808206
81	63307	70	606.83231481599
81	65336	71	584.644998442
81	67349	72	561.89819811651
81	69354	73	538.55419589704
81	71351	74	517.00435392904
81	73501	75	516.75
81	75676	76	516.75
81	77777	77	516.75
81	79862	78	516.75
81	82100	79	516.75
81	84354	80	516.75
81	86608	81	516.75
81	88870	82	516.75
81	91068	83	516.75
81	93423	84	516.75
81	95794	85	516.75
81	98173	86	516.75
81	100512	87	516.75
81	102718	88	516.75
81	105025	89	516.75
81	107340	90	516.75
81	109679	91	516.75
81	112018	92	516.75
50	2650	22	1.4089601965597
50	2996	23	1.5465741167916
50	3342	24	1.6542589652629
50	3688	25	1.7949845953921
50	4119	26	1.9547890373341
50	4631	27	1.9359366633345
50	5151	28	2.0879007876141
50	5671	29	2.2926250716099
50	6191	30	2.3568044534577
50	6812	31	2.4829332021263
50	7441	32	2.5326625272857
50	8070	33	2.6470898101251
50	8796	34	2.9416431025847
50	9522	35	3.0556899937265
50	10373	36	3.2369256547713
50	11232	37	3.2739215510423
50	12099	38	3.2928456471833
50	12974	39	3.5374141529951
50	13978	40	3.6265254756165
50	14990	41	3.9081703494612
50	16010	42	3.8024629587179
50	17038	43	4.3280426016101
50	18074	44	4.4548399140645
50	19243	45	4.5001435153045
50	20436	46	4.6848407919846
50	21661	47	4.4880419705109
50	22886	48	2.3829408004417
50	24119	49	2.4057256169415
50	25489	50	2.1955078479391
50	26867	51	2.4726549581528
50	28293	52	2.3176792117831
50	29735	53	2.3412197754247
50	31185	54	2.3842706578767
50	32784	55	2.2906417866
50	34501	56	2.2991093768317
50	36140	57	2.4062309842843
50	39045	58	2.3329487730077
50	40692	59	2.3125419639365
50	43988	60	2.3277800805258
50	45788	61	2.3853066073954
50	47797	62	2.3194673535268
50	49637	63	2.3641687688857
50	51477	64	2.3231453309087
50	53402	65	2.3419937228587
50	55359	66	2.3717253343251
50	57340	67	2.241604633801
50	59321	68	2.3985110811969
50	61294	69	2.2852095601651
50	63307	70	2.3396354793518
50	65336	71	2.3066481203792
50	67349	72	2.4431268752723
50	69354	73	2.2570169737762
50	71351	74	2.3498999450132
50	73501	75	2.2934273422635
50	75676	76	2.4723092314923
50	77777	77	2.2624952089824
50	79862	78	2.4368777296474
50	82100	79	2.1814497046121
50	84354	80	2.375624774528
50	86608	81	2.3071201174993
50	88870	82	2.3621114412629
50	91068	83	2.4449540298578
50	93423	84	2.2643778338217
50	95794	85	2.4157418871506
50	98173	86	2.2712467574959
50	100512	87	2.3922215173012
50	102718	88	2.3727917205594
50	105025	89	2.3363887446554
50	107340	90	2.2873063766495
50	109679	91	2.3360508198706
50	112018	92	2.2685948459645
49	2650	22	0.59264504849911
49	2996	23	0.62571765969507
49	3342	24	0.60519486479461
49	3688	25	0.62638686083257
49	4119	26	0.65388622350991
49	4631	27	0.53522259223275
49	5151	28	0.57259836157784
49	5671	29	0.63106458887458
49	6191	30	0.59186138745397
49	6812	31	0.59492032312788
49	7441	32	0.55891955506988
49	8070	33	0.56015161299147
49	8796	34	0.63832753060385
49	9522	35	0.62646093443036
49	10373	36	0.64163390189409
49	11232	37	0.60149006896652
49	12099	38	0.56141506612301
49	12974	39	0.60093622126617
49	13978	40	0.58500717758201
49	14990	41	0.62802037267946
49	16010	42	0.55356175707653
49	17038	43	0.6615623650048
49	18074	44	0.64873577496037
49	19243	45	0.61652785114944
49	20436	46	0.62152599373832
49	21661	47	0.53605102007126
49	22886	48	0.010777160432191
49	24119	49	0.015942663485184
49	25489	50	-0.035367369912564
49	26867	51	0.032694076048209
49	28293	52	-0.0057188387587672
49	29735	53	0.00014043102972394
49	31185	54	0.010528769185765
49	32784	55	-0.01240082415752
49	34501	56	-0.0099862545356153
49	36140	57	0.016194341462107
49	39045	58	-0.0019925289694243
49	40692	59	-0.0068637586571256
49	43988	60	-0.0029749550949774
49	45788	61	0.011009897831826
49	47797	62	-0.005224994719029
49	49637	63	0.005729975840076
49	51477	64	-0.0043513866793354
49	53402	65	0.00033316454850052
49	55359	66	0.0075015761982655
49	57340	67	-0.024176953220739
49	59321	68	0.01448108702898
49	61294	69	-0.013339408757165
49	63307	70	0.00022296627983565
49	65336	71	-0.0077629965543764
49	67349	72	0.025446314830333
49	69354	73	-0.020296732410788
49	71351	74	0.0027769185323265
49	73501	75	-0.010967898983509
49	75676	76	0.032578618302942
49	77777	77	-0.019089776994662
49	79862	78	0.023609268432484
49	82100	79	-0.038853047583252
49	84354	80	0.0092990215215849
49	86608	81	-0.007551648141817
49	88870	82	0.0059788744337865
49	91068	83	0.02579410332255
49	93423	84	-0.018610455254095
49	95794	85	0.018523088023066
49	98173	86	-0.01694573588669
49	100512	87	0.012798915738237
49	102718	88	0.007715502940119
49	105025	89	-0.0013063382077974
49	107340	90	-0.013127553537487
49	109679	91	-0.00095254837535208
49	112018	92	-0.017241895757618
48	2304	21	0.97019341295734
48	2650	22	1.5628384614565
48	2996	23	2.1885561211515
48	3342	24	2.7937509859461
48	3688	25	3.4201378467787
48	4119	26	4.0740240702886
48	4631	27	4.6092466625214
48	5151	28	5.1818450240992
48	5671	29	5.8129096129738
48	6191	30	6.4047710004278
48	6812	31	6.9996913235556
48	7441	32	7.5586108786255
48	8070	33	8.118762491617
48	8796	34	8.7570900222208
48	9522	35	9.3835509566512
48	10373	36	10.025184858545
48	11232	37	10.626674927512
48	12099	38	11.188089993635
48	12974	39	11.789026214901
48	13978	40	12.374033392483
48	14990	41	13.002053765162
48	16010	42	13.555615522239
48	17038	43	14.217177887244
48	18074	44	14.865913662204
48	19243	45	15.482441513354
48	20436	46	16.103967507092
48	21661	47	16.640018527163
48	22886	48	16.650795687595
48	24119	49	16.666738351081
48	25489	50	16.631370981168
48	26867	51	16.664065057216
48	28293	52	16.658346218457
48	29735	53	16.658486649487
48	31185	54	16.669015418673
48	32784	55	16.656614594515
48	34501	56	16.64662833998
48	36140	57	16.662822681442
48	39045	58	16.660830152472
48	40692	59	16.653966393815
48	43988	60	16.65099143872
48	45788	61	16.662001336552
48	47797	62	16.656776341833
48	49637	63	16.662506317673
48	51477	64	16.658154930994
48	53402	65	16.658488095542
48	55359	66	16.665989671741
48	57340	67	16.64181271852
48	59321	68	16.656293805549
48	61294	69	16.642954396792
48	63307	70	16.643177363072
48	65336	71	16.635414366517
48	67349	72	16.660860681348
48	69354	73	16.640563948937
48	71351	74	16.643340867469
48	73501	75	16.632372968486
48	75676	76	16.664951586789
48	77777	77	16.645861809794
48	79862	78	16.669471078226
48	82100	79	16.630618030643
48	84354	80	16.639917052165
48	86608	81	16.632365404023
48	88870	82	16.638344278457
48	91068	83	16.664138381779
48	93423	84	16.645527926525
48	95794	85	16.664051014548
48	98173	86	16.647105278661
48	100512	87	16.6599041944
48	102718	88	16.66761969734
48	105025	89	16.666313359132
48	107340	90	16.653185805595
48	109679	91	16.652233257219
48	112018	92	16.634991361462
47	1966	20	516.75
47	2304	21	516.75
47	2650	22	516.75
47	2996	23	516.75
47	3342	24	516.75
47	3688	25	516.75
47	4119	26	516.75
47	4631	27	516.75
47	5151	28	516.75
47	5671	29	516.75
47	6191	30	516.75
47	6812	31	516.75
47	7441	32	516.75
47	8070	33	516.75
47	8796	34	516.75
47	9522	35	516.75
47	10373	36	516.75
47	11232	37	516.75
47	12099	38	516.75
47	12974	39	516.75
47	13978	40	516.75
47	14990	41	516.75
47	16010	42	516.75
47	17038	43	516.75
47	18074	44	516.75
47	19243	45	516.75
47	20436	46	516.75
47	21661	47	516.75
47	22886	48	516.75
47	24119	49	516.75
47	25489	50	516.75
47	26867	51	516.75
47	28293	52	516.75
47	29735	53	516.75
47	31185	54	516.75
47	32784	55	516.75
47	34501	56	516.75
47	36140	57	516.75
47	39045	58	516.75
47	40692	59	516.75
47	43988	60	516.75
47	45788	61	516.75
47	47797	62	516.75
47	49637	63	516.75
47	51477	64	516.75
47	53402	65	516.75
47	55359	66	516.75
47	57340	67	516.75
47	59321	68	516.75
47	61294	69	516.75
47	63307	70	516.75
47	65336	71	516.75
47	67349	72	516.75
47	69354	73	516.75
47	71351	74	516.75
47	73501	75	516.75
47	75676	76	516.75
47	77777	77	516.75
47	79862	78	516.75
47	82100	79	516.75
47	84354	80	516.75
47	86608	81	516.75
47	88870	82	516.75
47	91068	83	516.75
47	93423	84	516.75
47	95794	85	516.75
47	98173	86	516.75
47	100512	87	516.75
47	102718	88	516.75
47	105025	89	516.75
47	107340	90	516.75
47	109679	91	516.75
47	112018	92	516.75
46	1966	20	1019.7860960184
46	2304	21	1019.7860960184
46	2650	22	1019.065405233
46	2996	23	1017.7820626175
46	3342	24	1015.8831549291
46	3688	25	1013.3623341536
46	4119	26	1010.2351969162
46	4631	27	1006.4687274221
46	5151	28	1002.0972079057
46	5671	29	997.15962795373
46	6191	30	991.64380773251
46	6812	31	985.5009872523
46	7441	32	978.75672447173
46	8070	33	971.46112607877
46	8796	34	963.58791246542
46	9522	35	955.11045287872
46	10373	36	946.01614975175
46	11232	37	936.29203233979
46	12099	38	925.94032221784
46	12974	39	915.02290124572
46	13978	40	903.50981788785
46	14990	41	891.4024759932
46	16010	42	878.6836216427
46	17038	43	865.36511324573
46	18074	44	851.43669796312
46	19243	45	836.8482099322
46	20436	46	821.63301134389
46	21661	47	805.80213912562
46	22886	48	789.36860594457
46	24119	49	772.71499280164
46	25489	50	756.06041728755
46	26867	51	739.41263382177
46	28293	52	722.76234297993
46	29735	53	706.10996012582
46	31185	54	689.4606518146
46	32784	55	672.80528130444
46	34501	56	656.15126636284
46	36140	57	639.50563039228
46	39045	58	622.84922051431
46	40692	59	606.19602066705
46	43988	60	589.54984510881
46	45788	61	572.89546963075
46	47797	62	556.24241598448
46	49637	63	539.59523085266
46	51477	64	522.94768585
46	53402	65	506.29491123446
46	55359	66	489.64774530744
46	57340	67	473.00093002205
46	59321	68	456.35303086354
46	61294	69	439.70807395813
46	63307	70	423.05934942177
46	65336	71	406.41090778222
46	67349	72	389.7606404868
46	69354	73	373.10784813906
46	71351	74	356.46169685278
46	73501	75	339.81451679549
46	75676	76	323.16562201503
46	77777	77	306.51891381298
46	79862	78	289.87580193093
46	82100	79	273.22117137148
46	84354	80	256.57298376684
46	86608	81	239.92343558803
46	88870	82	223.27415442294
46	91068	83	206.61834677774
46	93423	84	189.9618161963
46	95794	85	173.30987546858
46	98173	86	156.65713203163
46	100512	87	140.00481128382
46	102718	88	123.35607432512
46	105025	89	106.70876738374
46	107340	90	90.05918802736
46	109679	91	73.404582653447
46	112018	92	56.751703243194
vector 172  RSUExampleScenario2.node[24].veinsmobility  posx  ETV
vector 173  RSUExampleScenario2.node[24].veinsmobility  posy  ETV
vector 174  RSUExampleScenario2.node[24].veinsmobility  speed  ETV
vector 175  RSUExampleScenario2.node[24].veinsmobility  acceleration  ETV
vector 176  RSUExampleScenario2.node[24].veinsmobility  co2emission  ETV
vector 179  RSUExampleScenario2.node[25].veinsmobility  posx  ETV
vector 180  RSUExampleScenario2.node[25].veinsmobility  posy  ETV
vector 181  RSUExampleScenario2.node[25].veinsmobility  speed  ETV
vector 182  RSUExampleScenario2.node[25].veinsmobility  acceleration  ETV
vector 183  RSUExampleScenario2.node[25].veinsmobility  co2emission  ETV
vector 186  RSUExampleScenario2.node[26].veinsmobility  posx  ETV
vector 187  RSUExampleScenario2.node[26].veinsmobility  posy  ETV
vector 188  RSUExampleScenario2.node[26].veinsmobility  speed  ETV
vector 189  RSUExampleScenario2.node[26].veinsmobility  acceleration  ETV
vector 190  RSUExampleScenario2.node[26].veinsmobility  co2emission  ETV
vector 193  RSUExampleScenario2.node[27].veinsmobility  posx  ETV
vector 194  RSUExampleScenario2.node[27].veinsmobility  posy  ETV
vector 195  RSUExampleScenario2.node[27].veinsmobility  speed  ETV
vector 196  RSUExampleScenario2.node[27].veinsmobility  acceleration  ETV
vector 197  RSUExampleScenario2.node[27].veinsmobility  co2emission  ETV
vector 200  RSUExampleScenario2.node[28].veinsmobility  posx  ETV
vector 201  RSUExampleScenario2.node[28].veinsmobility  posy  ETV
vector 202  RSUExampleScenario2.node[28].veinsmobility  speed  ETV
vector 203  RSUExampleScenario2.node[28].veinsmobility  acceleration  ETV
vector 204  RSUExampleScenario2.node[28].veinsmobility  co2emission  ETV
vector 207  RSUExampleScenario2.node[29].veinsmobility  posx  ETV
vector 208  RSUExampleScenario2.node[29].veinsmobility  posy  ETV
vector 209  RSUExampleScenario2.node[29].veinsmobility  speed  ETV
vector 210  RSUExampleScenario2.node[29].veinsmobility  acceleration  ETV
vector 211  RSUExampleScenario2.node[29].veinsmobility  co2emission  ETV
vector 214  RSUExampleScenario2.node[30].veinsmobility  posx  ETV
vector 215  RSUExampleScenario2.node[30].veinsmobility  posy  ETV
vector 216  RSUExampleScenario2.node[30].veinsmobility  speed  ETV
vector 217  RSUExampleScenario2.node[30].veinsmobility  acceleration  ETV
vector 218  RSUExampleScenario2.node[30].veinsmobility  co2emission  ETV
43	1330	17	1.3958982896967
43	1542	18	1.551975173039
43	1754	19	1.636084788265
43	1966	20	1.7238746698929
43	2304	21	1.8919874704307
43	2650	22	2.0240880949442
43	2996	23	2.089918574571
43	3342	24	2.1773884683757
43	3688	25	2.4007471956979
43	4119	26	2.4971919210189
43	4631	27	2.6126979190769
43	5151	28	2.8804261009495
43	5671	29	3.0046677776049
43	6191	30	2.9373871229875
43	6812	31	3.0930938086521
43	7441	32	3.0368005429887
43	8070	33	3.1735082191848
43	8796	34	3.4450632296169
43	9522	35	3.6541256393327
43	10373	36	3.8934976192433
43	11232	37	4.0070105954748
43	12099	38	4.3283283566081
43	12974	39	4.2413534006166
43	13978	40	4.383207320871
43	14990	41	4.945523153164
43	16010	42	4.6676806821881
43	17038	43	2.3894473530133
43	18074	44	2.354833314715
43	19243	45	2.3552310792978
43	20436	46	2.3165322008119
43	21661	47	2.4091997695093
43	22886	48	2.3603909202207
43	24119	49	2.3260571023899
43	25489	50	2.2228299917717
43	26867	51	2.3349033035067
43	28293	52	2.471288412362
43	29735	53	2.258050306011
43	31185	54	2.4332567462681
43	32784	55	0.973
43	34501	56	0.973
43	36140	57	0.973
43	39045	58	0.973
43	40692	59	0.973
43	43988	60	0.973
43	45788	61	0.973
43	47797	62	0.973
43	49637	63	0.973
43	51477	64	0.973
43	53402	65	0.973
43	55359	66	0.973
43	57340	67	0.973
43	59321	68	0.973
43	61294	69	0.973
43	63307	70	0.973
43	65336	71	0.973
43	67349	72	0.973
43	69354	73	0.973
43	71351	74	0.973
43	73501	75	0.973
43	75676	76	0.973
43	77777	77	0.973
43	79862	78	0.973
43	82100	79	0.973
43	84354	80	0.973
43	86608	81	0.973
43	88870	82	0.973
43	91068	83	1.2578823087904
43	93423	84	1.3632287072689
43	95794	85	1.443496358934
43	98173	86	1.5954450792414
43	100512	87	1.6975026077296
43	102718	88	1.8150522212228
43	105025	89	1.9374088810541
43	107340	90	2.0343386329075
43	109679	91	2.0916944036941
43	112018	92	2.2582475570809
43	114357	93	2.4647149289478
43	116683	94	2.3836053350472
43	119041	95	2.5893106379043
43	121407	96	2.7577704304283
43	123773	97	2.8616063202376
43	126147	98	3.1079268359425
43	128670	99	3.2187560746603
43	131217	100	3.4010340574351
43	133796	101	3.152802816266
43	136375	102	3.4108559227148
43	138946	103	3.7611713466705
43	141686	104	3.9408893712943
43	144435	105	3.9180849550677
43	147199	106	4.2912372559052
43	149955	107	4.2155443743822
43	152884	108	4.5980354561277
43	155829	109	4.6791679141762
43	158806	110	4.2789423741229
43	161791	111	2.3881563511358
43	164776	112	2.3409011107584
43	167906	113	2.3302221157348
43	171068	114	2.3737649715496
43	174262	115	2.3087543251735
43	177440	116	2.3076205347767
43	180602	117	2.3977249669448
43	183905	118	2.3327632344902
43	187208	119	2.2773679064973
43	190479	120	2.4341156366479
43	193726	121	2.2299225523257
43	196957	122	2.3649141143846
43	200373	123	2.4249817433225
43	203837	124	2.3269778240585
43	207293	125	2.2434331776863
42	1330	17	0.59341588656418
42	1542	18	0.65267269496806
42	1754	19	0.59374001611955
42	1966	20	0.56616107188165
42	2304	21	0.62036391740665
42	2650	22	0.62523483901285
42	2996	23	0.58183226632886
42	3342	24	0.56468578399159
42	3688	25	0.63075234477408
42	4119	26	0.61082373118959
42	4631	27	0.60453142547049
42	5151	28	0.66848657663911
42	5671	29	0.65614022000693
42	6191	30	0.56911192310974
42	6812	31	0.58253723043948
42	7441	32	0.5160792782344
42	8070	33	0.52685507879592
42	8796	34	0.58002725615166
42	9522	35	0.60426557588391
42	10373	36	0.63292767045088
42	11232	37	0.62034059179016
42	12099	38	0.66556543588638
42	12974	39	0.596422064621
42	13978	40	0.59385927475989
42	14990	41	0.69272635071538
42	16010	42	0.58145173002565
42	17038	43	0.012631920212879
42	18074	44	0.0038804553449161
42	19243	45	0.0038584299292417
42	20436	46	-0.0056120847258718
42	21661	47	0.016942252079026
42	22886	48	0.0046416561678022
42	24119	49	-0.0037886729184535
42	25489	50	-0.028650441011411
42	26867	51	-0.00067387746647185
42	28293	52	0.032277768272905
42	29735	53	-0.020206547323614
42	31185	54	0.022727105841042
42	32784	55	-1.6867683457112
42	34501	56	-3.4417372226905
42	36140	57	-3.2060755671161
42	39045	58	-2.810291448052
42	40692	59	-2.3189492859327
42	43988	60	-1.6337422892322
42	45788	61	-0.92204080808646
42	47797	62	-0.21267937068099
42	49637	63	-0.43659744740956
42	51477	64	-7.8880137442632e-12
42	53402	65	0
42	55359	66	0
42	57340	67	0
42	59321	68	0
42	61294	69	0
42	63307	70	0
42	65336	71	0
42	67349	72	0
42	69354	73	0
42	71351	74	0
42	73501	75	0
42	75676	76	0
42	77777	77	0
42	79862	78	0
42	82100	79	0
42	84354	80	0
42	86608	81	0
42	88870	82	0
42	91068	83	0.68954380414418
42	93423	84	0.60860400398585
42	95794	85	0.54806368314661
42	98173	86	0.61569556100294
42	100512	87	0.5939828510955
42	102718	88	0.59585412746295
42	105025	89	0.6003290576674
42	107340	90	0.58396308534779
42	109679	91	0.54563814704307
42	112018	92	0.58474368621595
42	114357	93	0.63468897287734
42	116683	94	0.52226157942787
42	119041	95	0.57451065042988
42	121407	96	0.59766041270457
42	123773	97	0.5877586423792
42	126147	98	0.63597973767668
42	128670	99	0.62312063674443
42	131217	100	0.63717967710458
42	133796	101	0.50236573239788
42	136375	102	0.55284567421302
42	138946	103	0.62335507576354
42	141686	104	0.63153767762706
42	144435	105	0.58055061232299
42	147199	106	0.64350133539178
42	149955	107	0.58000655004755
42	152884	108	0.6391289667692
42	155829	109	0.61689050523564
42	158806	110	0.48427047517788
42	161791	111	0.012221785979346
42	164776	112	0.00042918068356812
42	167906	113	-0.0021654774341719
42	171068	114	0.0084226482454675
42	174262	115	-0.0075442473683509
42	177440	116	-0.0075937392376346
42	180602	117	0.014415843216703
42	183905	118	-0.0017178715672372
42	187208	119	-0.015066908812148
42	190479	120	0.023272294960915
42	193726	121	-0.026797060715033
42	196957	122	0.0066704514250162
42	200373	123	0.020969861345364
42	203837	124	-0.0033365528658038
42	207293	125	-0.023451738944274
41	1118	16	0.8998435852996
41	1330	17	1.4932594718638
41	1542	18	2.1459321668318
41	1754	19	2.7396721829514
41	1966	20	3.305833254833
41	2304	21	3.9261971722397
41	2650	22	4.5514320112525
41	2996	23	5.1332642775814
41	3342	24	5.697950061573
41	3688	25	6.3287024063471
41	4119	26	6.9395261375367
41	4631	27	7.5440575630072
41	5151	28	8.2125441396463
41	5671	29	8.8686843596532
41	6191	30	9.4377962827629
41	6812	31	10.020333513202
41	7441	32	10.536412791437
41	8070	33	11.063267870233
41	8796	34	11.643295126384
41	9522	35	12.247560702268
41	10373	36	12.880488372719
41	11232	37	13.500828964509
41	12099	38	14.166394400396
41	12974	39	14.762816465017
41	13978	40	15.356675739777
41	14990	41	16.049402090492
41	16010	42	16.630853820518
41	17038	43	16.643485740731
41	18074	44	16.647366196075
41	19243	45	16.651224626005
41	20436	46	16.645612541279
41	21661	47	16.662554793358
41	22886	48	16.667196449526
41	24119	49	16.663407776607
41	25489	50	16.634757335596
41	26867	51	16.634083458129
41	28293	52	16.666361226402
41	29735	53	16.646154679079
41	31185	54	16.66888178492
41	32784	55	14.982113439208
41	34501	56	11.540376216518
41	36140	57	8.3343006494018
41	39045	58	5.5240092013498
41	40692	59	3.2050599154171
41	43988	60	1.5713176261849
41	45788	61	0.64927681809843
41	47797	62	0.43659744741744
41	49637	63	7.8880137442632e-12
41	51477	64	0
41	53402	65	0
41	55359	66	0
41	57340	67	0
41	59321	68	0
41	61294	69	0
41	63307	70	0
41	65336	71	0
41	67349	72	0
41	69354	73	0
41	71351	74	0
41	73501	75	0
41	75676	76	0
41	77777	77	0
41	79862	78	0
41	82100	79	0
41	84354	80	0
41	86608	81	0
41	88870	82	0
41	91068	83	0.68954380414418
41	93423	84	1.29814780813
41	95794	85	1.8462114912766
41	98173	86	2.4619070522796
41	100512	87	3.0558899033751
41	102718	88	3.651744030838
41	105025	89	4.2520730885054
41	107340	90	4.8360361738532
41	109679	91	5.3816743208963
41	112018	92	5.9664180071122
41	114357	93	6.6011069799896
41	116683	94	7.1233685594175
41	119041	95	7.6978792098473
41	121407	96	8.2955396225519
41	123773	97	8.8832982649311
41	126147	98	9.5192780026078
41	128670	99	10.142398639352
41	131217	100	10.779578316457
41	133796	101	11.281944048855
41	136375	102	11.834789723068
41	138946	103	12.458144798831
41	141686	104	13.089682476458
41	144435	105	13.670233088781
41	147199	106	14.313734424173
41	149955	107	14.893740974221
41	152884	108	15.53286994099
41	155829	109	16.149760446225
41	158806	110	16.634030921403
41	161791	111	16.646252707383
41	164776	112	16.646681888066
41	167906	113	16.644516410632
41	171068	114	16.652939058878
41	174262	115	16.645394811509
41	177440	116	16.637801072272
41	180602	117	16.652216915488
41	183905	118	16.650499043921
41	187208	119	16.635432135109
41	190479	120	16.65870443007
41	193726	121	16.631907369355
41	196957	122	16.63857782078
41	200373	123	16.659547682125
41	203837	124	16.656211129259
41	207293	125	16.632759390315
40	914	15	30.174066172292
40	1118	16	30.174066172292
40	1330	17	30.820510414426
40	1542	18	32.038768535174
40	1754	19	33.909586645497
40	1966	20	36.378462929749
40	2304	21	39.409996683339
40	2650	22	43.060553314885
40	2996	23	47.326393990283
40	3342	24	52.216640687028
40	3688	25	57.659405514311
40	4119	26	63.711621777528
40	4631	27	70.364284278375
40	5151	28	77.630094608955
40	5671	29	85.547019505912
40	6191	30	94.120804825819
40	6812	31	103.30403037347
40	7441	32	113.07794153246
40	8070	33	123.38965896717
40	8796	34	134.22434618371
40	9522	35	145.60341830502
40	10373	36	157.59047724134
40	11232	37	170.18627433299
40	12099	38	183.41484169186
40	12974	39	197.2866619865
40	13978	40	211.76716290392
40	14990	41	226.86014127584
40	16010	42	242.6065546298
40	17038	43	258.98256468052
40	18074	44	275.63090923855
40	19243	45	292.28121829847
40	20436	46	308.93868748865
40	21661	47	325.58797746459
40	22886	48	342.23912966494
40	24119	49	358.89114769469
40	25489	50	375.54261198972
40	26867	51	392.19659822219
40	28293	52	408.84268188438
40	29735	53	425.48970534372
40	31185	54	442.14370624391
40	32784	55	458.80257876405
40	34501	56	474.96660103321
40	36140	57	488.02501986837
40	39045	58	497.77317136374
40	40692	59	504.52907397746
40	43988	60	508.727743025
40	45788	61	510.98739769114
40	47797	62	512.01354850207
40	49637	63	512.4878701375
40	51477	64	512.649
40	53402	65	512.649
40	55359	66	512.649
40	57340	67	512.649
40	59321	68	512.649
40	61294	69	512.649
40	63307	70	512.649
40	65336	71	512.649
40	67349	72	512.649
40	69354	73	512.649
40	71351	74	512.649
40	73501	75	512.649
40	75676	76	512.649
40	77777	77	512.649
40	79862	78	512.649
40	82100	79	512.649
40	84354	80	512.649
40	86608	81	512.649
40	88870	82	512.649
40	91068	83	512.649
40	93423	84	513.04503233737
40	95794	85	514.06866395438
40	98173	86	515.65153779499
40	100512	87	517.83211921586
40	102718	88	520.57134939898
40	105025	89	523.13165790292
40	107340	90	523.35
40	109679	91	523.35
40	112018	92	523.35
40	114357	93	523.35
40	116683	94	523.35
40	119041	95	523.35
40	121407	96	523.35
40	123773	97	523.35
40	126147	98	523.35
40	128670	99	523.35
40	131217	100	523.35
40	133796	101	523.35
40	136375	102	523.35
40	138946	103	523.35
40	141686	104	523.35
40	144435	105	523.35
40	147199	106	523.35
40	149955	107	523.35
40	152884	108	523.35
40	155829	109	523.35
40	158806	110	523.35
40	161791	111	523.35
40	164776	112	523.35
40	167906	113	523.35
40	171068	114	523.35
40	174262	115	523.35
40	177440	116	523.35
40	180602	117	523.35
40	183905	118	523.35
40	187208	119	523.35
40	190479	120	523.35
40	193726	121	523.35
40	196957	122	523.35
40	200373	123	523.35
40	203837	124	523.35
40	207293	125	523.35
39	914	15	513.45
39	1118	16	513.45
39	1330	17	513.45
39	1542	18	513.45
39	1754	19	513.45
39	1966	20	513.45
39	2304	21	513.45
39	2650	22	513.45
39	2996	23	513.45
39	3342	24	513.45
39	3688	25	513.45
39	4119	26	513.45
39	4631	27	513.45
39	5151	28	513.45
39	5671	29	513.45
39	6191	30	513.45
39	6812	31	513.45
39	7441	32	513.45
39	8070	33	513.45
39	8796	34	513.45
39	9522	35	513.45
39	10373	36	513.45
39	11232	37	513.45
39	12099	38	513.45
39	12974	39	513.45
39	13978	40	513.45
39	14990	41	513.45
39	16010	42	513.45
39	17038	43	513.45
39	18074	44	513.45
39	19243	45	513.45
39	20436	46	513.45
39	21661	47	513.45
39	22886	48	513.45
39	24119	49	513.45
39	25489	50	513.45
39	26867	51	513.45
39	28293	52	513.45
39	29735	53	513.45
39	31185	54	513.45
39	32784	55	513.45
39	34501	56	513.45
39	36140	57	513.45
39	39045	58	513.45
39	40692	59	513.45
39	43988	60	513.45
39	45788	61	513.45
39	47797	62	513.45
39	49637	63	513.45
39	51477	64	513.45
39	53402	65	513.45
39	55359	66	513.45
39	57340	67	513.45
39	59321	68	513.45
39	61294	69	513.45
39	63307	70	513.45
39	65336	71	513.45
39	67349	72	513.45
39	69354	73	513.45
39	71351	74	513.45
39	73501	75	513.45
39	75676	76	513.45
39	77777	77	513.45
39	79862	78	513.45
39	82100	79	513.45
39	84354	80	513.45
39	86608	81	513.45
39	88870	82	513.45
39	91068	83	513.45
39	93423	84	513.45
39	95794	85	513.43123911525
39	98173	86	513.36030844787
39	100512	87	513.26259371438
39	102718	88	512.73960653112
39	105025	89	510.83679549512
39	107340	90	506.89497015047
39	109679	91	502.31948351566
39	112018	92	497.17426301369
39	114357	93	491.46818241109
39	116683	94	485.16174288916
39	119041	95	478.28169924748
39	121407	96	470.82662284143
39	123773	97	462.81232717712
39	126147	98	454.1781884853
39	128670	99	444.94124427346
39	131217	100	435.09587596268
39	133796	101	424.60716089203
39	136375	102	413.55824608715
39	138946	103	401.97943343249
39	141686	104	389.80312663598
39	144435	105	376.99337320875
39	147199	106	363.59785834296
39	149955	107	349.57742309103
39	152884	108	334.92835928262
39	155829	109	319.67665412883
39	158806	110	303.81850278403
39	161791	111	287.33965998048
39	164776	112	270.68986151422
39	167906	113	254.04034427861
39	171068	114	237.39283801406
39	174262	115	220.74223151452
39	177440	116	204.0926277928
39	180602	117	187.43961971776
39	183905	118	170.79049638647
39	187208	119	154.138621466
39	190479	120	137.48572226331
39	193726	121	120.83341461248
39	196957	122	104.18304011618
39	200373	123	87.532972441053
39	203837	124	70.884571758629
39	207293	125	54.23033839584
15	199	7	1.3491722881599
15	247	8	1.5001566897532
15	295	9	1.6341980161639
15	364	10	1.7476210249273
15	474	11	1.8501004792595
15	584	12	1.8839025102843
15	694	13	2.0514143595227
15	804	14	2.1976708994898
15	914	15	2.3609730229393
15	1118	16	2.4218455706424
15	1330	17	2.5445043565389
15	1542	18	2.613121569983
15	1754	19	2.645280871402
15	1966	20	2.9186765685558
15	2304	21	2.9766681924186
15	2650	22	3.4868154737945
15	2996	23	3.1586847781274
15	3342	24	3.4543086593548
15	3688	25	3.52647468931
15	4119	26	3.6144889176264
15	4631	27	3.9721001220708
15	5151	28	4.1969254463155
15	5671	29	4.177015865014
15	6191	30	4.2758298964599
15	6812	31	4.2739756189752
15	7441	32	4.7740687212589
15	8070	33	4.0505864555709
15	8796	34	2.2379461032503
15	9522	35	2.3190221976071
15	10373	36	2.363381898519
15	11232	37	2.3516744029693
15	12099	38	2.4050865210061
15	12974	39	2.2930840330094
15	13978	40	2.3821548877346
15	14990	41	2.3328978147641
15	16010	42	2.3527474445886
15	17038	43	2.3422352793447
15	18074	44	2.2517360549937
15	19243	45	0.973
15	20436	46	0.973
15	21661	47	0.973
15	22886	48	0.973
15	24119	49	0.973
15	25489	50	0.973
15	26867	51	0.973
15	28293	52	0.973
15	29735	53	0.973
15	31185	54	0.973
15	32784	55	0.973
15	34501	56	0.973
15	36140	57	0.973
15	39045	58	0.973
15	40692	59	0.973
15	43988	60	0.973
15	45788	61	0.973
15	47797	62	0.973
15	49637	63	0.973
15	51477	64	0.973
15	53402	65	0.973
15	55359	66	0.973
15	57340	67	0.973
15	59321	68	0.973
15	61294	69	0.973
15	63307	70	0.973
15	65336	71	0.973
15	67349	72	0.973
15	69354	73	0.973
15	71351	74	0.973
15	73501	75	0.973
15	75676	76	0.973
15	77777	77	0.973
15	79862	78	0.973
15	82100	79	0.973
15	84354	80	0.973
15	86608	81	0.973
15	88870	82	0.973
15	91068	83	1.2451748077347
15	93423	84	1.3796012119072
15	95794	85	1.5304548810782
15	98173	86	1.5801373171519
15	100512	87	1.6988604145236
15	102718	88	1.8273251404431
15	105025	89	1.9682334061554
15	107340	90	2.0361019122243
15	109679	91	2.2041103748629
15	112018	92	2.3648620605345
15	114357	93	2.3574447410708
15	116683	94	2.6801387928216
15	119041	95	2.6364662505653
15	121407	96	2.8378858520619
15	123773	97	2.959323693568
15	126147	98	3.1630595039649
15	128670	99	3.2688826356964
15	131217	100	3.3925094752469
15	133796	101	3.4526578263675
15	136375	102	3.7730373919774
15	138946	103	3.8406591532428
15	141686	104	3.950406555659
15	144435	105	4.2990261664102
15	147199	106	4.3723328670209
15	149955	107	4.2697325293275
15	152884	108	4.6529523195929
15	155829	109	4.7833312021326
15	158806	110	2.6963219251972
15	161791	111	2.2249342938075
15	164776	112	2.3827458209166
15	167906	113	2.4504646837277
15	171068	114	2.3304979857579
15	174262	115	2.2721801942544
15	177440	116	2.3314353809854
15	180602	117	2.3439160349976
15	183905	118	2.3805270954577
15	187208	119	2.2806879776605
15	190479	120	2.4004671315226
15	193726	121	2.2336123072298
15	196957	122	2.3570296034576
15	200373	123	2.4262373071378
15	203837	124	2.3002822828657
15	207293	125	2.3444205852189
15	210734	126	2.3497580222038
14	199	7	0.57255064928336
14	247	8	0.64011281826533
14	295	9	0.64438289067708
14	364	10	0.6246751594916
14	474	11	0.60335263532586
14	584	12	0.53425769766793
14	694	13	0.58528579257429
14	804	14	0.6056104979571
14	914	15	0.62932322379202
14	1118	16	0.59000389989466
14	1330	17	0.59112245679833
14	1542	18	0.56571349922568
14	1754	19	0.52868682688102
14	1966	20	0.60009046399966
14	2304	21	0.57156448845752
14	2650	22	0.71538035663776
14	2996	23	0.5381136331521
14	3342	24	0.59913039615378
14	3688	25	0.57799962691963
14	4119	26	0.5643178429734
14	4631	27	0.63091501237825
14	5151	28	0.64937649009749
14	5671	29	0.59894678010605
14	6191	30	0.58536449383944
14	6812	31	0.54780626242981
14	7441	32	0.63493986186571
14	8070	33	0.42553261603768
14	8796	34	-0.025042386511341
14	9522	35	-0.0046808712463822
14	10373	36	0.0061884973291306
14	11232	37	0.0031699946150177
14	12099	38	0.015971599966289
14	12974	39	-0.011570026688279
14	13978	40	0.010300845820456
14	14990	41	-0.0019082532916208
14	16010	42	0.0029439232870949
14	17038	43	0.00031598548404688
14	18074	44	-0.021578460335729
14	19243	45	-1.9615118016499
14	20436	46	-3.2525904124432
14	21661	47	-2.3223522276463
14	22886	48	-1.2918132250249
14	24119	49	-2.7421740778779
14	25489	50	-2.1655638148792
14	26867	51	-1.5369204693607
14	28293	52	-0.81116198556454
14	29735	53	-0.11759357214873
14	31185	54	-0.43770759925389
14	32784	55	-3.1922553595979e-13
14	34501	56	0
14	36140	57	0
14	39045	58	0
14	40692	59	0
14	43988	60	0
14	45788	61	0
14	47797	62	0
14	49637	63	0
14	51477	64	0
14	53402	65	0
14	55359	66	0
14	57340	67	0
14	59321	68	0
14	61294	69	0
14	63307	70	0
14	65336	71	0
14	67349	72	0
14	69354	73	0
14	71351	74	0
14	73501	75	0
14	75676	76	0
14	77777	77	0
14	79862	78	0
14	82100	79	0
14	84354	80	0
14	86608	81	0
14	88870	82	0
14	91068	83	0.65543007960387
14	93423	84	0.65369796060222
14	95794	85	0.67681133310311
14	98173	86	0.56274858965538
14	100512	87	0.57764380030334
14	102718	88	0.59447541976348
14	105025	89	0.6141275725048
14	107340	90	0.57348733174615
14	109679	91	0.61072627779096
14	112018	92	0.63184458322823
14	114357	93	0.55451879334636
14	116683	94	0.66318038237281
14	119041	95	0.57318680564873
14	121407	96	0.61015557700768
14	123773	97	0.60562523404136
14	126147	98	0.63318000539206
14	128670	99	0.61884415518493
14	131217	100	0.61252962969244
14	133796	101	0.58560179294087
14	136375	102	0.64418345531449
14	138946	103	0.61681900279597
14	141686	104	0.60497501093894
14	144435	105	0.65952740240842
14	147199	106	0.63298059425317
14	149955	107	0.564915611865
14	152884	108	0.62367136600427
14	155829	109	0.61448918749576
14	158806	110	0.088609277493855
14	161791	111	-0.027985350610688
14	164776	112	0.011039007417857
14	167906	113	0.02703706689179
14	171068	114	-0.0027425898425264
14	174262	115	-0.016757459724321
14	177440	116	-0.0019292003288882
14	180602	117	0.0011459565535183
14	183905	118	0.0099547443352641
14	187208	119	-0.014476341921835
14	190479	120	0.014907887950539
14	193726	121	-0.02588791766204
14	196957	122	0.0047524097282441
14	200373	123	0.021320949923247
14	203837	124	-0.0097545257583249
14	207293	125	0.0012084271945056
14	210734	126	0.0024615021143113
13	151	6	0.71072196453838
13	199	7	1.2832726138217
13	247	8	1.9233854320871
13	295	9	2.5677683227642
13	364	10	3.1924434822558
13	474	11	3.7957961175816
13	584	12	4.3300538152496
13	694	13	4.9153396078238
13	804	14	5.5209501057809
13	914	15	6.150273329573
13	1118	16	6.7402772294676
13	1330	17	7.3313996862659
13	1542	18	7.8971131854916
13	1754	19	8.4258000123726
13	1966	20	9.0258904763723
13	2304	21	9.5974549648298
13	2650	22	10.312835321468
13	2996	23	10.85094895462
13	3342	24	11.450079350773
13	3688	25	12.028078977693
13	4119	26	12.592396820666
13	4631	27	13.223311833045
13	5151	28	13.872688323142
13	5671	29	14.471635103248
13	6191	30	15.056999597088
13	6812	31	15.604805859518
13	7441	32	16.239745721383
13	8070	33	16.665278337421
13	8796	34	16.64023595091
13	9522	35	16.635555079663
13	10373	36	16.641743576992
13	11232	37	16.644913571607
13	12099	38	16.660885171574
13	12974	39	16.649315144885
13	13978	40	16.659615990706
13	14990	41	16.657707737414
13	16010	42	16.660651660701
13	17038	43	16.660967646185
13	18074	44	16.63938918585
13	19243	45	14.6778773842
13	20436	46	11.425286971756
13	21661	47	9.1029347441102
13	22886	48	7.8111215190852
13	24119	49	5.0689474412073
13	25489	50	2.9033836263282
13	26867	51	1.3664631569675
13	28293	52	0.55530117140294
13	29735	53	0.43770759925421
13	31185	54	3.1922553595979e-13
13	32784	55	0
13	34501	56	0
13	36140	57	0
13	39045	58	0
13	40692	59	0
13	43988	60	0
13	45788	61	0
13	47797	62	0
13	49637	63	0
13	51477	64	0
13	53402	65	0
13	55359	66	0
13	57340	67	0
13	59321	68	0
13	61294	69	0
13	63307	70	0
13	65336	71	0
13	67349	72	0
13	69354	73	0
13	71351	74	0
13	73501	75	0
13	75676	76	0
13	77777	77	0
13	79862	78	0
13	82100	79	0
13	84354	80	0
13	86608	81	0
13	88870	82	0
13	91068	83	0.65543007960387
13	93423	84	1.3091280402061
13	95794	85	1.9859393733092
13	98173	86	2.5486879629646
13	100512	87	3.1263317632679
13	102718	88	3.7208071830314
13	105025	89	4.3349347555362
13	107340	90	4.9084220872823
13	109679	91	5.5191483650733
13	112018	92	6.1509929483015
13	114357	93	6.7055117416479
13	116683	94	7.3686921240207
13	119041	95	7.9418789296694
13	121407	96	8.5520345066771
13	123773	97	9.1576597407185
13	126147	98	9.7908397461105
13	128670	99	10.409683901295
13	131217	100	11.022213530988
13	133796	101	11.607815323929
13	136375	102	12.251998779243
13	138946	103	12.868817782039
13	141686	104	13.473792792978
13	144435	105	14.133320195387
13	147199	106	14.76630078964
13	149955	107	15.331216401505
13	152884	108	15.954887767509
13	155829	109	16.569376955005
13	158806	110	16.657986232499
13	161791	111	16.630000881888
13	164776	112	16.641039889306
13	167906	113	16.668076956198
13	171068	114	16.665334366355
13	174262	115	16.648576906631
13	177440	116	16.646647706302
13	180602	117	16.647793662855
13	183905	118	16.657748407191
13	187208	119	16.643272065269
13	190479	120	16.658179953219
13	193726	121	16.632292035557
13	196957	122	16.637044445286
13	200373	123	16.658365395209
13	203837	124	16.64861086945
13	207293	125	16.649819296645
13	210734	126	16.652280798759
12	103	5	30.1
12	151	6	30.1
12	199	7	30.49840148381
12	247	8	31.514435469091
12	295	9	33.149688190641
12	364	10	35.429734275571
12	474	11	38.330961834586
12	584	12	41.860907365713
12	694	13	45.961789317538
12	804	14	50.630669819915
12	914	15	55.903274850001
12	1118	16	61.773955475291
12	1330	17	68.250489381309
12	1542	18	75.315307193951
12	1754	19	82.965568603025
12	1966	20	91.14817563303
12	2304	21	99.906749784386
12	2650	22	109.25141222683
12	2996	23	119.23807713162
12	3342	24	129.84430930289
12	3688	25	141.01484865901
12	4119	26	152.77082538984
12	4631	27	165.11414118295
12	5151	28	178.04916788136
12	5671	29	191.62789286316
12	6191	30	205.82679310196
12	6812	31	220.61524643065
12	7441	32	235.98185436367
12	8070	33	251.95386903754
12	8796	34	268.49410376951
12	9522	35	285.14411824109
12	10373	36	301.78349618596
12	11232	37	318.42615841044
12	12099	38	335.06819576251
12	12974	39	351.7161153813
12	13978	40	368.37073030222
12	14990	41	385.01981095722
12	16010	42	401.66948496859
12	17038	43	418.319369861
12	18074	44	434.96951288289
12	19243	45	451.60974799571
12	20436	46	467.57548193661
12	21661	47	480.4613838343
12	22886	48	490.29160611418
12	24119	49	499.13456109708
12	25489	50	505.41364101509
12	26867	51	509.2374547211
12	28293	52	511.23075715427
12	29735	53	512.11149050684
12	31185	54	512.56192852194
12	32784	55	512.649
12	34501	56	512.649
12	36140	57	512.649
12	39045	58	512.649
12	40692	59	512.649
12	43988	60	512.649
12	45788	61	512.649
12	47797	62	512.649
12	49637	63	512.649
12	51477	64	512.649
12	53402	65	512.649
12	55359	66	512.649
12	57340	67	512.649
12	59321	68	512.649
12	61294	69	512.649
12	63307	70	512.649
12	65336	71	512.649
12	67349	72	512.649
12	69354	73	512.649
12	71351	74	512.649
12	73501	75	512.649
12	75676	76	512.649
12	77777	77	512.649
12	79862	78	512.649
12	82100	79	512.649
12	84354	80	512.649
12	86608	81	512.649
12	88870	82	512.649
12	91068	83	512.649
12	93423	84	513.03662073862
12	95794	85	514.05234738717
12	98173	86	515.72068799294
12	100512	87	518.00004971255
12	102718	88	520.73563030306
12	105025	89	523.97793116313
12	107340	90	527.96352533939
12	109679	91	532.59340554126
12	112018	92	537.83016345626
12	114357	93	543.70329117469
12	116683	94	550.15030433355
12	119041	95	557.23606774953
12	121407	96	564.91786081704
12	123773	97	573.1844325427
12	126147	98	582.04682583664
12	128670	99	591.55131293683
12	131217	100	601.68548662736
12	133796	101	612.40896104169
12	136375	102	623.77810687523
12	138946	103	635.73407646582
12	141686	104	648.31997059168
12	144435	105	661.52183972855
12	147199	106	675.35341507574
12	149955	107	689.83866949873
12	152884	108	704.90760130397
12	155829	109	720.58137301671
12	158806	110	736.86425391793
12	161791	111	753.51339348341
12	164776	112	770.16201304117
12	167906	113	786.8128658413
12	171068	114	803.46333611414
12	174262	115	820.11722733005
12	177440	116	836.76719094269
12	180602	117	853.41222941914
12	183905	118	870.06645568446
12	187208	119	886.71220107988
12	190479	120	903.36004997707
12	193726	121	920.00893098009
12	196957	122	936.6556450126
12	200373	123	953.30520643664
12	203837	124	969.95414573931
12	207293	125	986.60644415586
12	210734	126	1003.258069004
11	103	5	513.45
11	151	6	513.45
11	199	7	513.45
11	247	8	513.45
11	295	9	513.45
11	364	10	513.45
11	474	11	513.45
11	584	12	513.45
11	694	13	513.45
11	804	14	513.45
11	914	15	513.45
11	1118	16	513.45
11	1330	17	513.45
11	1542	18	513.45
11	1754	19	513.45
11	1966	20	513.45
[...]
60	155829	109	516.75
60	158806	110	516.75
60	161791	111	520.05
60	164776	112	520.05
60	167906	113	520.05
60	171068	114	520.05
60	174262	115	520.05
60	177440	116	520.24819003281
60	180602	117	520.83900496876
60	183905	118	522.30657631269
60	187208	119	523.20243983676
60	190479	120	523.35
60	193726	121	523.35
60	196957	122	523.35
60	200373	123	523.35
60	203837	124	523.35
60	207293	125	523.35
60	210734	126	523.35
60	214037	127	523.35
60	217388	128	523.35
60	220638	129	523.35
60	223904	130	523.35
60	227186	131	523.35
60	230649	132	523.35
60	234136	133	523.35
60	237809	134	523.35
60	241368	135	523.35
60	246678	136	523.35
60	250422	137	523.35
60	256113	138	523.35
60	259929	139	523.35
60	263858	140	523.35
60	267698	141	523.35
60	271735	142	523.35
60	275828	143	523.35
60	279953	144	523.35
60	284078	145	523.35
60	288211	146	523.35
60	292553	147	523.35
60	296943	148	523.35
60	301358	149	523.35
60	305764	150	523.35
60	310138	151	523.35
60	314709	152	523.35
60	319336	153	523.35
60	323987	154	523.35
60	328639	155	523.35
60	333306	156	523.35
60	338166	157	523.35
60	343074	158	523.35
60	347837	159	523.35
60	352584	160	523.35
60	357315	161	523.35
60	362231	162	523.35
60	367147	163	523.35
60	372063	164	523.35
60	376979	165	523.35
60	381895	166	523.35
60	387008	167	523.35
60	392137	168	523.35
60	397290	169	523.35
60	402254	170	523.35
60	407218	171	520.05
60	412013	172	520.05
60	416784	173	520.05
60	421523	174	520.05
60	426270	175	520.05
60	430985	176	520.05
60	435708	177	520.05
60	440463	178	520.05
60	445202	179	520.05
60	449933	180	520.05
78	7441	32	1.4110941608065
78	8070	33	1.5226218161907
78	8796	34	1.6961379318915
78	9522	35	1.8739743270727
78	10373	36	1.8582257205603
78	11232	37	1.9724777981629
78	12099	38	2.1413834303984
78	12974	39	2.207594699554
78	13978	40	2.4073559752932
78	14990	41	2.4761484524086
78	16010	42	2.5675758016713
78	17038	43	2.7435844789138
78	18074	44	2.9368664507851
78	19243	45	3.0119764517385
78	20436	46	3.0072930384541
78	21661	47	3.1639323678343
78	22886	48	3.3143588752583
78	24119	49	3.5058209434901
78	25489	50	3.3955029345101
78	26867	51	3.9330605029137
78	28293	52	3.973410321079
78	29735	53	4.1333060341241
78	31185	54	4.1844633912414
78	32784	55	4.36131762188
78	34501	56	4.6498219442789
78	36140	57	4.9266275539485
78	39045	58	2.6364553097207
78	40692	59	2.4594783473047
78	43988	60	2.335087642907
78	45788	61	2.2231478507137
78	47797	62	2.3364416072615
78	49637	63	2.4301013607138
78	51477	64	2.2279474608606
78	53402	65	2.4551063242945
78	55359	66	2.349525811899
78	57340	67	2.2265171203328
78	59321	68	0.973
78	61294	69	0.973
78	63307	70	0.973
78	65336	71	0.973
78	67349	72	0.973
78	69354	73	0.973
78	71351	74	0.973
78	73501	75	0.973
78	75676	76	0.973
78	77777	77	0.973
78	79862	78	0.973
78	82100	79	0.973
78	84354	80	0.973
78	86608	81	0.973
78	88870	82	0.973
78	91068	83	1.1760733920015
78	93423	84	1.1325316023434
78	95794	85	1.1581172477186
78	98173	86	1.3102785447569
78	100512	87	1.4526820564647
78	102718	88	1.579788848751
78	105025	89	1.623591504859
78	107340	90	1.7986259037049
78	109679	91	1.8657893315416
78	112018	92	2.0005422506281
78	114357	93	2.1167858518409
78	116683	94	2.2737709480559
78	119041	95	2.361504942968
78	121407	96	2.461064454839
78	123773	97	2.628239707438
78	126147	98	2.712608903282
78	128670	99	2.7253131794931
78	131217	100	2.9916164172508
78	133796	101	3.0129961529842
78	136375	102	3.2905719998124
78	138946	103	3.3641121082221
78	141686	104	3.6286426958302
78	144435	105	0.973
78	147199	106	0.973
78	149955	107	0.973
78	152884	108	0.973
78	155829	109	0.973
78	158806	110	0.973
78	161791	111	0.973
78	164776	112	0.973
78	167906	113	0.973
78	171068	114	0.973
78	174262	115	0.973
78	177440	116	0.973
78	180602	117	0.973
78	183905	118	0.973
78	187208	119	0.973
78	190479	120	0.973
78	193726	121	0.973
78	196957	122	0.973
78	200373	123	0.973
78	203837	124	0.973
78	207293	125	0.973
78	210734	126	0.973
78	214037	127	0.973
78	217388	128	0.973
78	220638	129	0.973
78	223904	130	0.973
78	227186	131	0.973
78	230649	132	0.973
78	234136	133	0.973
78	237809	134	0.973
78	241368	135	0.973
78	246678	136	0.973
78	250422	137	0.973
78	256113	138	0.973
78	259929	139	0.973
78	263858	140	0.973
78	267698	141	0.973
78	271735	142	0.973
78	275828	143	0.973
78	279953	144	0.973
78	284078	145	0.973
78	288211	146	0.973
78	292553	147	0.973
78	296943	148	0.973
78	301358	149	0.973
78	305764	150	0.973
78	310138	151	0.973
78	314709	152	0.973
78	319336	153	0.973
78	323987	154	0.973
78	328639	155	1.2676259437277
78	333306	156	1.3884886416757
78	338166	157	1.5029184205658
78	343074	158	1.5717769914169
78	347837	159	1.7501530928187
78	352584	160	1.8317283829325
78	357315	161	1.9225298822439
78	362231	162	2.0546209849492
78	367147	163	2.1507911514273
78	372063	164	2.2794824772136
78	376979	165	2.453586016383
78	381895	166	2.4971799655968
78	387008	167	2.720830913327
78	392137	168	2.9633871978981
78	397290	169	2.8905531949481
78	402254	170	3.1830136518767
78	407218	171	3.3141382852439
78	412013	172	3.3095200445195
78	416784	173	3.5270341588084
78	421523	174	3.6593349276767
78	426270	175	3.793617928036
78	430985	176	4.0356436828936
78	435708	177	4.0380880695135
78	440463	178	4.2176878296656
78	445202	179	4.3229088436232
78	449933	180	4.2868223718227
77	7441	32	0.5417647548765
77	8070	33	0.56130323634483
77	8796	34	0.64024652816355
77	9522	35	0.68372845591046
77	10373	36	0.54788840716705
77	11232	37	0.55745181891136
77	12099	38	0.60080051916652
77	12974	39	0.56667366282083
77	13978	40	0.61754201499746
77	14990	41	0.58570826486684
77	16010	42	0.57186807024293
77	17038	43	0.59920472628437
77	18074	44	0.62726711915806
77	19243	45	0.60144588582218
77	20436	46	0.54944893014617
77	21661	47	0.56444491146132
77	22886	48	0.57410850409418
77	24119	49	0.59495346268639
77	25489	50	0.51700947831385
77	26867	51	0.64509606403299
77	28293	52	0.61023572319187
77	29735	53	0.61256002916954
77	31185	54	0.58514383920469
77	32784	55	0.59267871567048
77	34501	56	0.62572227766737
77	36140	57	0.65070338139309
77	39045	58	0.074370644208351
77	40692	59	0.029272195743395
77	43988	60	-0.0016422947123651
77	45788	61	-0.028667588150128
77	47797	62	-0.00040065540932233
77	49637	63	0.022234630743043
77	51477	64	-0.027309008101
77	53402	65	0.028425754867492
77	55359	66	0.0020665029063842
77	57340	67	-0.027746819313617
77	59321	68	-0.35152090509005
77	61294	69	-3.1789727493435
77	63307	70	-3.1102678498772
77	65336	71	-0.78785017901148
77	67349	72	-2.510085813702
77	69354	73	-2.5473010981677
77	71351	74	-1.9472498218229
77	73501	75	-1.2397215900896
77	75676	76	-0.52135421961554
77	77777	77	-0.44095319859787
77	79862	78	-2.5652128518083e-05
77	82100	79	0
77	84354	80	0
77	86608	81	0
77	88870	82	0
77	91068	83	0.43297324203886
77	93423	84	0.010551910732174
77	95794	85	0.14117271913341
77	98173	86	0.5389400250172
77	100512	87	0.61602576274425
77	102718	88	0.62281564263627
77	105025	89	0.53270125288516
77	107340	90	0.6102501688432
77	109679	91	0.56410363284871
77	112018	92	0.58535882147029
77	114357	93	0.58635386117734
77	116683	94	0.61173881826922
77	119041	95	0.58991983559914
77	121407	96	0.57927123680711
77	123773	97	0.6036501189135
77	126147	98	0.58398392051458
77	128670	99	0.53681012254208
77	131217	100	0.60153253899887
77	133796	101	0.55921696830541
77	136375	102	0.61708956836723
77	138946	103	0.59370188352652
77	141686	104	0.63599071641453
77	144435	105	-4.5
77	147199	106	-4.5
77	149955	107	-2.7541527677851
77	152884	108	0
77	155829	109	0
77	158806	110	0
77	161791	111	0
77	164776	112	0
77	167906	113	0
77	171068	114	0
77	174262	115	0
77	177440	116	0
77	180602	117	0
77	183905	118	0
77	187208	119	0
77	190479	120	0
77	193726	121	0
77	196957	122	0
77	200373	123	0
77	203837	124	0
77	207293	125	0
77	210734	126	0
77	214037	127	0
77	217388	128	0
77	220638	129	0
77	223904	130	0
77	227186	131	0
77	230649	132	0
77	234136	133	0
77	237809	134	0
77	241368	135	0
77	246678	136	0
77	250422	137	0
77	256113	138	0
77	259929	139	0
77	263858	140	0
77	267698	141	0
77	271735	142	0
77	275828	143	0
77	279953	144	0
77	284078	145	0
77	288211	146	0
77	292553	147	0
77	296943	148	0
77	301358	149	0
77	305764	150	0
77	310138	151	0
77	314709	152	0
77	319336	153	0
77	323987	154	0
77	328639	155	0.71473368412301
77	333306	156	0.64743960832455
77	338166	157	0.62059504111297
77	343074	158	0.55299472413957
77	347837	159	0.63398023787886
77	352584	160	0.59077305895276
77	357315	161	0.57100468373857
77	362231	162	0.5873988251295
77	367147	163	0.57442457862198
77	372063	164	0.58413590290584
77	376979	165	0.61561698357575
77	381895	166	0.57188702602871
77	387008	167	0.62330709532835
77	392137	168	0.6703142756503
77	397290	169	0.57660500302911
77	402254	170	0.64287792745978
77	407218	171	0.6364363484364
77	412013	172	0.58332751602866
77	416784	173	0.61201747026294
77	421523	174	0.60837746632285
77	426270	175	0.6051624080725
77	430985	176	0.6325989108719
77	435708	177	0.5892593990732
77	440463	178	0.59823242970742
77	445202	179	0.58628714950756
77	449933	180	0.54037617643364
76	6812	31	1.1397009328992
76	7441	32	1.6814656877757
76	8070	33	2.2427689241205
76	8796	34	2.8830154522841
76	9522	35	3.5667439081945
76	10373	36	4.1146323153616
76	11232	37	4.6720841342729
76	12099	38	5.2728846534394
76	12974	39	5.8395583162603
76	13978	40	6.4571003312577
76	14990	41	7.0428085961246
76	16010	42	7.6146766663675
76	17038	43	8.2138813926519
76	18074	44	8.8411485118099
76	19243	45	9.4425943976321
76	20436	46	9.9920433277783
76	21661	47	10.55648823924
76	22886	48	11.130596743334
76	24119	49	11.72555020602
76	25489	50	12.242559684334
76	26867	51	12.887655748367
76	28293	52	13.497891471559
76	29735	53	14.110451500728
76	31185	54	14.695595339933
76	32784	55	15.288274055604
76	34501	56	15.913996333271
76	36140	57	16.564699714664
76	39045	58	16.639070358872
76	40692	59	16.668342554616
76	43988	60	16.666700259903
76	45788	61	16.638032671753
76	47797	62	16.637632016344
76	49637	63	16.659866647087
76	51477	64	16.632557638986
76	53402	65	16.660983393854
76	55359	66	16.66304989676
76	57340	67	16.635303077446
76	59321	68	16.283782172356
76	61294	69	13.104809423013
76	63307	70	9.9945415731356
76	65336	71	9.2066913941242
76	67349	72	6.6966055804221
76	69354	73	4.1493044822544
76	71351	74	2.2020546604316
76	73501	75	0.96233307034193
76	75676	76	0.44097885072639
76	77777	77	2.5652128518083e-05
76	79862	78	0
76	82100	79	0
76	84354	80	0
76	86608	81	0
76	88870	82	0
76	91068	83	0.43297324203886
76	93423	84	0.44352515277104
76	95794	85	0.58469787190444
76	98173	86	1.1236378969216
76	100512	87	1.7396636596659
76	102718	88	2.3624793023022
76	105025	89	2.8951805551873
76	107340	90	3.5054307240305
76	109679	91	4.0695343568792
76	112018	92	4.6548931783495
76	114357	93	5.2412470395269
76	116683	94	5.8529858577961
76	119041	95	6.4429056933952
76	121407	96	7.0221769302023
76	123773	97	7.6258270491158
76	126147	98	8.2098109696304
76	128670	99	8.7466210921725
76	131217	100	9.3481536311714
76	133796	101	9.9073705994768
76	136375	102	10.524460167844
76	138946	103	11.118162051371
76	141686	104	11.754152767785
76	144435	105	7.2541527677851
76	147199	106	2.7541527677851
76	149955	107	0
76	152884	108	0
76	155829	109	0
76	158806	110	0
76	161791	111	0
76	164776	112	0
76	167906	113	0
76	171068	114	0
76	174262	115	0
76	177440	116	0
76	180602	117	0
76	183905	118	0
76	187208	119	0
76	190479	120	0
76	193726	121	0
76	196957	122	0
76	200373	123	0
76	203837	124	0
76	207293	125	0
76	210734	126	0
76	214037	127	0
76	217388	128	0
76	220638	129	0
76	223904	130	0
76	227186	131	0
76	230649	132	0
76	234136	133	0
76	237809	134	0
76	241368	135	0
76	246678	136	0
76	250422	137	0
76	256113	138	0
76	259929	139	0
76	263858	140	0
76	267698	141	0
76	271735	142	0
76	275828	143	0
76	279953	144	0
76	284078	145	0
76	288211	146	0
76	292553	147	0
76	296943	148	0
76	301358	149	0
76	305764	150	0
76	310138	151	0
76	314709	152	0
76	319336	153	0
76	323987	154	0
76	328639	155	0.71473368412301
76	333306	156	1.3621732924476
76	338166	157	1.9827683335605
76	343074	158	2.5357630577001
76	347837	159	3.169743295579
76	352584	160	3.7605163545317
76	357315	161	4.3315210382703
76	362231	162	4.9189198633998
76	367147	163	5.4933444420218
76	372063	164	6.0774803449276
76	376979	165	6.6930973285034
76	381895	166	7.2649843545321
76	387008	167	7.8882914498604
76	392137	168	8.5586057255107
76	397290	169	9.1352107285398
76	402254	170	9.7780886559996
76	407218	171	10.414525004436
76	412013	172	10.997852520465
76	416784	173	11.609869990728
76	421523	174	12.21824745705
76	426270	175	12.823409865123
76	430985	176	13.456008775995
76	435708	177	14.045268175068
76	440463	178	14.643500604776
76	445202	179	15.229787754283
76	449933	180	15.770163930717
75	6191	30	30.36260879479
75	6812	31	30.36260879479
75	7441	32	31.249179169056
75	8070	33	32.683662045735
75	8796	34	34.653928680612
75	9522	35	37.261764996843
75	10373	36	40.520044796229
75	11232	37	44.379330170114
75	12099	38	48.785593488311
75	12974	39	53.806618577571
75	13978	40	59.381645895139
75	14990	41	65.576547419061
75	16010	42	72.348352508114
75	17038	43	79.731396982289
75	18074	44	87.681890550793
75	19243	45	96.23294348848
75	20436	46	105.39138930625
75	21661	47	115.12955317419
75	22886	48	125.42197968102
75	24119	49	136.29896139231
75	25489	50	147.77897642139
75	26867	51	159.78881542453
75	28293	52	172.39452024718
75	29735	53	185.61160194455
75	31185	54	199.45363037658
75	32784	55	213.89444364073
75	34501	56	228.9192573257
75	36140	57	244.56243539049
75	39045	58	260.8351788824
75	40692	59	277.48221739794
75	43988	60	294.13657123451
75	45788	61	310.79130525453
75	47797	62	327.43732118921
75	49637	63	344.09387067125
75	51477	64	360.74445485523
75	53402	65	377.39310342266
75	55359	66	394.04186911417
75	57340	67	410.68517372034
75	59321	68	427.32927067685
75	61294	69	443.93299642243
75	63307	70	458.45379493872
75	65336	71	469.84096788859
75	67349	72	478.97183430651
75	69354	73	486.96418099038
75	71351	74	492.20103693068
75	73501	75	495.21065086264
75	75676	76	496.6780705263
75	77777	77	497.30009922332
75	79862	78	497.64699987356
75	82100	79	497.647
75	84354	80	497.647
75	86608	81	497.647
75	88870	82	497.647
75	91068	83	497.647
75	93423	84	497.88391758382
75	95794	85	498.32285303518
75	98173	86	498.78540805563
75	100512	87	499.66913687207
75	102718	88	501.13139114127
75	105025	89	503.20668695498
75	107340	90	505.87097536122
75	109679	91	509.10347485613
75	112018	92	512.93100859074
75	114357	93	517.29810307085
75	116683	94	522.04710447038
75	119041	95	527.44188973839
75	121407	96	533.61550335483
75	123773	97	540.39148122006
75	126147	98	547.75990256644
75	128670	99	555.73006495994
75	131217	100	564.2249039893
75	133796	101	573.30142045722
75	136375	102	582.96115394437
75	138946	103	593.2175019325
75	141686	104	604.07798419435
75	144435	105	615.55955270974
75	147199	106	624.83870547752
75	149955	107	629.61785824531
75	152884	108	630.32534990598
75	155829	109	630.32534990598
75	158806	110	630.32534990598
75	161791	111	630.32534990598
75	164776	112	630.32534990598
75	167906	113	630.32534990598
75	171068	114	630.32534990598
75	174262	115	630.32534990598
75	177440	116	630.32534990598
75	180602	117	630.32534990598
75	183905	118	630.32534990598
75	187208	119	630.32534990598
75	190479	120	630.32534990598
75	193726	121	630.32534990598
75	196957	122	630.32534990598
75	200373	123	630.32534990598
75	203837	124	630.32534990598
75	207293	125	630.32534990598
75	210734	126	630.32534990598
75	214037	127	630.32534990598
75	217388	128	630.32534990598
75	220638	129	630.32534990598
75	223904	130	630.32534990598
75	227186	131	630.32534990598
75	230649	132	630.32534990598
75	234136	133	630.32534990598
75	237809	134	630.32534990598
75	241368	135	630.32534990598
75	246678	136	630.32534990598
75	250422	137	630.32534990598
75	256113	138	630.32534990598
75	259929	139	630.32534990598
75	263858	140	630.32534990598
75	267698	141	630.32534990598
75	271735	142	630.32534990598
75	275828	143	630.32534990598
75	279953	144	630.32534990598
75	284078	145	630.32534990598
75	288211	146	630.32534990598
75	292553	147	630.32534990598
75	296943	148	630.32534990598
75	301358	149	630.32534990598
75	305764	150	630.32534990598
75	310138	151	630.32534990598
75	314709	152	630.32534990598
75	319336	153	630.32534990598
75	323987	154	630.32534990598
75	328639	155	630.32534990598
75	333306	156	630.72031419871
75	338166	157	631.77993859673
75	343074	158	633.48850233474
75	347837	159	635.76263361298
75	352584	160	638.65988778404
75	357315	161	642.15240925254
75	362231	162	646.22234608137
75	367147	163	650.89047392714
75	372063	164	656.13398027434
75	376979	165	661.94522306103
75	381895	166	668.33898124315
75	387008	167	675.3478343102
75	392137	168	682.94579686237
75	397290	169	691.20142708199
75	402254	170	700.07111588823
75	407218	171	709.55270452698
75	412013	172	719.67703536886
75	416784	173	730.42375685831
75	421523	174	741.7676016695
75	426270	175	753.70848166945
75	430985	176	766.25880232052
75	435708	177	779.42694335939
75	440463	178	793.20035891541
75	445202	179	807.56404163671
75	449933	180	822.52752538156
74	6191	30	513.45
74	6812	31	513.45
74	7441	32	513.45
74	8070	33	513.45
74	8796	34	513.45
74	9522	35	513.45
74	10373	36	513.45
74	11232	37	513.45
74	12099	38	513.45
74	12974	39	513.45
74	13978	40	513.45
74	14990	41	513.45
74	16010	42	513.45
74	17038	43	513.45
74	18074	44	513.45
74	19243	45	513.45
74	20436	46	513.45
74	21661	47	513.45
74	22886	48	513.45
74	24119	49	513.45
74	25489	50	513.45
74	26867	51	513.45
74	28293	52	513.45
74	29735	53	513.45
74	31185	54	516.75
74	32784	55	516.75
74	34501	56	516.75
74	36140	57	516.75
74	39045	58	516.75
74	40692	59	516.75
74	43988	60	516.75
74	45788	61	516.75
74	47797	62	516.75
74	49637	63	516.75
74	51477	64	516.75
74	53402	65	516.75
74	55359	66	516.75
74	57340	67	516.75
74	59321	68	516.75
74	61294	69	516.75
74	63307	70	516.75
74	65336	71	516.75
74	67349	72	520.05
74	69354	73	520.05
74	71351	74	520.05
74	73501	75	520.05
74	75676	76	520.05
74	77777	77	520.05
74	79862	78	520.05
74	82100	79	520.05
74	84354	80	520.05
74	86608	81	520.05
74	88870	82	520.05
74	91068	83	520.05
74	93423	84	520.05
74	95794	85	520.05
74	98173	86	520.05
74	100512	87	520.05
74	102718	88	520.05
74	105025	89	520.05
74	107340	90	520.05
74	109679	91	520.05
74	112018	92	520.05
74	114357	93	520.44275643827
74	116683	94	521.82180995389
74	119041	95	523.10150779792
74	121407	96	523.35
74	123773	97	523.35
74	126147	98	523.35
74	128670	99	523.35
74	131217	100	523.35
74	133796	101	523.35
74	136375	102	523.35
74	138946	103	523.35
74	141686	104	523.35
74	144435	105	523.35
74	147199	106	523.35
74	149955	107	523.35
74	152884	108	523.35
74	155829	109	523.35
74	158806	110	523.35
74	161791	111	523.35
74	164776	112	523.35
74	167906	113	523.35
74	171068	114	523.35
74	174262	115	523.35
74	177440	116	523.35
74	180602	117	523.35
74	183905	118	523.35
74	187208	119	523.35
74	190479	120	523.35
74	193726	121	523.35
74	196957	122	523.35
74	200373	123	523.35
74	203837	124	523.35
74	207293	125	523.35
74	210734	126	523.35
74	214037	127	523.35
74	217388	128	523.35
74	220638	129	523.35
74	223904	130	523.35
74	227186	131	523.35
74	230649	132	523.35
74	234136	133	523.35
74	237809	134	523.35
74	241368	135	523.35
74	246678	136	523.35
74	250422	137	523.35
74	256113	138	523.35
74	259929	139	523.35
74	263858	140	523.35
74	267698	141	523.35
74	271735	142	523.35
74	275828	143	523.35
74	279953	144	523.35
74	284078	145	523.35
74	288211	146	523.35
74	292553	147	523.35
74	296943	148	523.35
74	301358	149	523.35
74	305764	150	523.35
74	310138	151	523.35
74	314709	152	523.35
74	319336	153	523.35
74	323987	154	523.35
74	328639	155	523.35
74	333306	156	523.35
74	338166	157	523.35
74	343074	158	523.35
74	347837	159	523.35
74	352584	160	523.35
74	357315	161	523.35
74	362231	162	523.35
74	367147	163	523.35
74	372063	164	523.35
74	376979	165	523.35
74	381895	166	523.35
74	387008	167	523.35
74	392137	168	523.35
74	397290	169	523.35
74	402254	170	523.35
74	407218	171	523.35
74	412013	172	523.35
74	416784	173	523.35
74	421523	174	523.35
74	426270	175	523.35
74	430985	176	523.35
74	435708	177	523.35
74	440463	178	523.35
74	445202	179	523.35
74	449933	180	523.35
