version 2
run WithoutChSw-WSA-TrAD-1-20180210-11:46:05-24946
attr configname WithoutChSw-WSA-TrAD
attr datetime 20180210-11:46:05
attr experiment WithoutChSw-WSA-TrAD
attr inifile omnetpp.ini
attr iterationvars $0=0.5s
attr iterationvarsf 0.5s-
attr measurement $0=0.5s
attr network Scenario2_SlowSpeed
attr processid 24946
attr repetition 0
attr replication #0
attr resultdir results
attr runnumber 1
attr seedset 1
param **.coreDebug false
param **.debug false
param *.**.nic.mac1609_4.bitrate 6Mbps
param *.**.nic.mac1609_4.txPower 20mW
param *.**.nic.mac1609_4.useServiceChannel false
param *.**.nic.phy80211p.analogueModels "xmldoc(\"config.xml\")"
param *.**.nic.phy80211p.antenna "xmldoc(\"antenna.xml\", \"/root/Antenna[@id='monopole']\")"
param *.**.nic.phy80211p.collectCollisionStatistics true
param *.**.nic.phy80211p.decider "xmldoc(\"config.xml\")"
param *.**.nic.phy80211p.sensitivity -89dBm
param *.**.nic.phy80211p.thermalNoise -110dBm
param *.**.nic.phy80211p.usePropagationDelay true
param *.**.nic.phy80211p.useThermalNoise true
param *.annotations.draw true
param *.connectionManager.drawMaxIntfDist false
param *.connectionManager.maxInterfDist 2600m
param *.connectionManager.sendDirect true
param *.manager.autoShutdown true
param *.manager.host "\"localhost\""
param *.manager.launchConfig "xmldoc(\"mycross.launchd.xml\")"
param *.manager.port 9999
param *.manager.updateInterval 1s
param *.node[*].appl.TrAD true
param *.node[*].appl.TrAD_Neig 25
param *.node[*].appl.TrAD_R 366
param *.node[*].appl.TrAD_alpha 10
param *.node[*].appl.TrAD_ti 0.005
param *.node[*].appl.beaconInterval 1s
param *.node[*].appl.dataOnSch false
param *.node[*].appl.headerLength "80 bit"
param *.node[*].appl.sendBeacons true
param *.node[*].appl.sendWSA true
param *.node[*].applType "\"myWaveAppLayer\""
param *.node[*].veinsmobility.x 0
param *.node[*].veinsmobility.y 0
param *.node[*].veinsmobility.z 1.895
param *.node[*].veinsmobilityType.debug true
param *.node[20].appl.Accident_start 30
param *.node[40].veinsmobility.accidentCount 1
param *.node[40].veinsmobility.accidentDuration 40s
param *.node[40].veinsmobility.accidentStart 30s
param *.obstacles.debug false
param *.playgroundSizeX 2500m
param *.playgroundSizeY 2500m
param *.playgroundSizeZ 50m
param *.rsu[*].appl.beaconInterval 0.1s
param *.rsu[*].appl.beaconUserPriority 7
param *.rsu[*].appl.dataOnSch false
param *.rsu[*].appl.dataUserPriority 5
param *.rsu[*].appl.headerLength "80 bit"
param *.rsu[*].appl.sendBeacons false
param *.rsu[*].applType "\"TraCIDemoRSU11p\""
param *.rsu[0].mobility.x 500
param *.rsu[0].mobility.y 500
param *.rsu[0].mobility.z 3

scalar Scenario2_SlowSpeed.node[0].appl 	generatedWSMs 	1
scalar Scenario2_SlowSpeed.node[0].appl 	receivedWSMs 	14
scalar Scenario2_SlowSpeed.node[0].appl 	generatedBSMs 	118
scalar Scenario2_SlowSpeed.node[0].appl 	receivedBSMs 	18433
scalar Scenario2_SlowSpeed.node[0].appl 	generatedWSAs 	0
scalar Scenario2_SlowSpeed.node[0].appl 	receivedWSAs 	0
scalar Scenario2_SlowSpeed.node[0].appl 	delayWSM 	0.000238626018
scalar Scenario2_SlowSpeed.node[0].appl 	Dist_Propa 	123.10683563627
scalar Scenario2_SlowSpeed.node[0].nic.phy80211p 	busyTime 	0.032940474576286
scalar Scenario2_SlowSpeed.node[0].nic.phy80211p 	ncollisions 	102
scalar Scenario2_SlowSpeed.node[0].nic.mac1609_4 	ReceivedUnicastPackets 	0
scalar Scenario2_SlowSpeed.node[0].nic.mac1609_4 	ReceivedBroadcasts 	18447
scalar Scenario2_SlowSpeed.node[0].nic.mac1609_4 	SentPackets 	119
scalar Scenario2_SlowSpeed.node[0].nic.mac1609_4 	SNIRLostPackets 	201
scalar Scenario2_SlowSpeed.node[0].nic.mac1609_4 	RXTXLostPackets 	160
scalar Scenario2_SlowSpeed.node[0].nic.mac1609_4 	TotalLostPackets 	361
scalar Scenario2_SlowSpeed.node[0].nic.mac1609_4 	DroppedPacketsInMac 	0
scalar Scenario2_SlowSpeed.node[0].nic.mac1609_4 	TooLittleTime 	0
scalar Scenario2_SlowSpeed.node[0].nic.mac1609_4 	TimesIntoBackoff 	119
scalar Scenario2_SlowSpeed.node[0].nic.mac1609_4 	SlotsBackoff 	160
scalar Scenario2_SlowSpeed.node[0].nic.mac1609_4 	NumInternalContention 	0
scalar Scenario2_SlowSpeed.node[0].nic.mac1609_4 	totalBusyTime 	1.944151335193
scalar Scenario2_SlowSpeed.node[0].veinsmobility 	startTime 	1
scalar Scenario2_SlowSpeed.node[0].veinsmobility 	totalTime 	59
scalar Scenario2_SlowSpeed.node[0].veinsmobility 	stopTime 	60
scalar Scenario2_SlowSpeed.node[0].veinsmobility 	minSpeed 	4.0518554631622
scalar Scenario2_SlowSpeed.node[0].veinsmobility 	maxSpeed 	7.9879484311235
scalar Scenario2_SlowSpeed.node[0].veinsmobility 	totalDistance 	458.12904075632
scalar Scenario2_SlowSpeed.node[0].veinsmobility 	totalCO2Emission 	95.192546388852
scalar Scenario2_SlowSpeed.node[1].appl 	generatedWSMs 	1
scalar Scenario2_SlowSpeed.node[1].appl 	receivedWSMs 	16
scalar Scenario2_SlowSpeed.node[1].appl 	generatedBSMs 	118
scalar Scenario2_SlowSpeed.node[1].appl 	receivedBSMs 	17978
scalar Scenario2_SlowSpeed.node[1].appl 	generatedWSAs 	0
scalar Scenario2_SlowSpeed.node[1].appl 	receivedWSAs 	0
scalar Scenario2_SlowSpeed.node[1].appl 	delayWSM 	0.000238703034
scalar Scenario2_SlowSpeed.node[1].appl 	Dist_Propa 	146.94467695051
scalar Scenario2_SlowSpeed.node[1].nic.phy80211p 	busyTime 	0.032137491525438
scalar Scenario2_SlowSpeed.node[1].nic.phy80211p 	ncollisions 	107
scalar Scenario2_SlowSpeed.node[1].nic.mac1609_4 	ReceivedUnicastPackets 	0
scalar Scenario2_SlowSpeed.node[1].nic.mac1609_4 	ReceivedBroadcasts 	17994
scalar Scenario2_SlowSpeed.node[1].nic.mac1609_4 	SentPackets 	119
scalar Scenario2_SlowSpeed.node[1].nic.mac1609_4 	SNIRLostPackets 	196
scalar Scenario2_SlowSpeed.node[1].nic.mac1609_4 	RXTXLostPackets 	160
scalar Scenario2_SlowSpeed.node[1].nic.mac1609_4 	TotalLostPackets 	356
scalar Scenario2_SlowSpeed.node[1].nic.mac1609_4 	DroppedPacketsInMac 	0
scalar Scenario2_SlowSpeed.node[1].nic.mac1609_4 	TooLittleTime 	0
scalar Scenario2_SlowSpeed.node[1].nic.mac1609_4 	TimesIntoBackoff 	119
scalar Scenario2_SlowSpeed.node[1].nic.mac1609_4 	SlotsBackoff 	181
scalar Scenario2_SlowSpeed.node[1].nic.mac1609_4 	NumInternalContention 	0
scalar Scenario2_SlowSpeed.node[1].nic.mac1609_4 	totalBusyTime 	1.897815357493
scalar Scenario2_SlowSpeed.node[1].veinsmobility 	startTime 	1
scalar Scenario2_SlowSpeed.node[1].veinsmobility 	totalTime 	59
scalar Scenario2_SlowSpeed.node[1].veinsmobility 	stopTime 	60
scalar Scenario2_SlowSpeed.node[1].veinsmobility 	minSpeed 	3.7822135175928
scalar Scenario2_SlowSpeed.node[1].veinsmobility 	maxSpeed 	7.9984821532085
scalar Scenario2_SlowSpeed.node[1].veinsmobility 	totalDistance 	459.98091866
scalar Scenario2_SlowSpeed.node[1].veinsmobility 	totalCO2Emission 	95.948474722952
scalar Scenario2_SlowSpeed.node[2].appl 	generatedWSMs 	1
scalar Scenario2_SlowSpeed.node[2].appl 	receivedWSMs 	13
scalar Scenario2_SlowSpeed.node[2].appl 	generatedBSMs 	118
scalar Scenario2_SlowSpeed.node[2].appl 	receivedBSMs 	14359
scalar Scenario2_SlowSpeed.node[2].appl 	generatedWSAs 	0
scalar Scenario2_SlowSpeed.node[2].appl 	receivedWSAs 	0
scalar Scenario2_SlowSpeed.node[2].appl 	delayWSM 	0.000239086187
scalar Scenario2_SlowSpeed.node[2].appl 	Dist_Propa 	217.56751826489
scalar Scenario2_SlowSpeed.node[2].nic.phy80211p 	busyTime 	0.025951728813567
scalar Scenario2_SlowSpeed.node[2].nic.phy80211p 	ncollisions 	31
scalar Scenario2_SlowSpeed.node[2].nic.mac1609_4 	ReceivedUnicastPackets 	0
scalar Scenario2_SlowSpeed.node[2].nic.mac1609_4 	ReceivedBroadcasts 	14372
scalar Scenario2_SlowSpeed.node[2].nic.mac1609_4 	SentPackets 	119
scalar Scenario2_SlowSpeed.node[2].nic.mac1609_4 	SNIRLostPackets 	166
scalar Scenario2_SlowSpeed.node[2].nic.mac1609_4 	RXTXLostPackets 	6
scalar Scenario2_SlowSpeed.node[2].nic.mac1609_4 	TotalLostPackets 	172
scalar Scenario2_SlowSpeed.node[2].nic.mac1609_4 	DroppedPacketsInMac 	0
scalar Scenario2_SlowSpeed.node[2].nic.mac1609_4 	TooLittleTime 	0
scalar Scenario2_SlowSpeed.node[2].nic.mac1609_4 	TimesIntoBackoff 	119
scalar Scenario2_SlowSpeed.node[2].nic.mac1609_4 	SlotsBackoff 	182
scalar Scenario2_SlowSpeed.node[2].nic.mac1609_4 	NumInternalContention 	0
scalar Scenario2_SlowSpeed.node[2].nic.mac1609_4 	totalBusyTime 	1.512455086189
scalar Scenario2_SlowSpeed.node[2].veinsmobility 	startTime 	1
scalar Scenario2_SlowSpeed.node[2].veinsmobility 	totalTime 	59
scalar Scenario2_SlowSpeed.node[2].veinsmobility 	stopTime 	60
scalar Scenario2_SlowSpeed.node[2].veinsmobility 	minSpeed 	3.897912896338
scalar Scenario2_SlowSpeed.node[2].veinsmobility 	maxSpeed 	7.9983026179066
scalar Scenario2_SlowSpeed.node[2].veinsmobility 	totalDistance 	456.31984322273
scalar Scenario2_SlowSpeed.node[2].veinsmobility 	totalCO2Emission 	97.560120482686
scalar Scenario2_SlowSpeed.node[114].appl 	generatedWSMs 	1
scalar Scenario2_SlowSpeed.node[114].appl 	receivedWSMs 	5
scalar Scenario2_SlowSpeed.node[114].appl 	generatedBSMs 	98
scalar Scenario2_SlowSpeed.node[114].appl 	receivedBSMs 	15265
scalar Scenario2_SlowSpeed.node[114].appl 	generatedWSAs 	0
scalar Scenario2_SlowSpeed.node[114].appl 	receivedWSAs 	0
scalar Scenario2_SlowSpeed.node[114].appl 	delayWSM 	0.000238149629
scalar Scenario2_SlowSpeed.node[114].appl 	Dist_Propa 	208.56238464082
scalar Scenario2_SlowSpeed.node[114].nic.phy80211p 	busyTime 	0.032747591836746
scalar Scenario2_SlowSpeed.node[114].nic.phy80211p 	ncollisions 	66
scalar Scenario2_SlowSpeed.node[114].nic.mac1609_4 	ReceivedUnicastPackets 	0
scalar Scenario2_SlowSpeed.node[114].nic.mac1609_4 	ReceivedBroadcasts 	15270
scalar Scenario2_SlowSpeed.node[114].nic.mac1609_4 	SentPackets 	99
scalar Scenario2_SlowSpeed.node[114].nic.mac1609_4 	SNIRLostPackets 	153
scalar Scenario2_SlowSpeed.node[114].nic.mac1609_4 	RXTXLostPackets 	160
scalar Scenario2_SlowSpeed.node[114].nic.mac1609_4 	TotalLostPackets 	313
scalar Scenario2_SlowSpeed.node[114].nic.mac1609_4 	DroppedPacketsInMac 	0
scalar Scenario2_SlowSpeed.node[114].nic.mac1609_4 	TooLittleTime 	0
scalar Scenario2_SlowSpeed.node[114].nic.mac1609_4 	TimesIntoBackoff 	99
scalar Scenario2_SlowSpeed.node[114].nic.mac1609_4 	SlotsBackoff 	145
scalar Scenario2_SlowSpeed.node[114].nic.mac1609_4 	NumInternalContention 	0
scalar Scenario2_SlowSpeed.node[114].nic.mac1609_4 	totalBusyTime 	1.606107667585
scalar Scenario2_SlowSpeed.node[114].veinsmobility 	startTime 	11
scalar Scenario2_SlowSpeed.node[114].veinsmobility 	totalTime 	49
scalar Scenario2_SlowSpeed.node[114].veinsmobility 	stopTime 	60
scalar Scenario2_SlowSpeed.node[114].veinsmobility 	minSpeed 	2.3009286735916
scalar Scenario2_SlowSpeed.node[114].veinsmobility 	maxSpeed 	7.9973298779479
scalar Scenario2_SlowSpeed.node[114].veinsmobility 	totalDistance 	321.77978262127
scalar Scenario2_SlowSpeed.node[114].veinsmobility 	totalCO2Emission 	80.37773906376
scalar Scenario2_SlowSpeed.node[47].appl 	generatedWSMs 	1
scalar Scenario2_SlowSpeed.node[47].appl 	receivedWSMs 	17
scalar Scenario2_SlowSpeed.node[47].appl 	generatedBSMs 	116
scalar Scenario2_SlowSpeed.node[47].appl 	receivedBSMs 	14766
scalar Scenario2_SlowSpeed.node[47].appl 	generatedWSAs 	0
scalar Scenario2_SlowSpeed.node[47].appl 	receivedWSAs 	0
scalar Scenario2_SlowSpeed.node[47].appl 	delayWSM 	0.00548531366
scalar Scenario2_SlowSpeed.node[47].appl 	Dist_Propa 	507.04805528251
scalar Scenario2_SlowSpeed.node[47].nic.phy80211p 	busyTime 	0.02718772413794
scalar Scenario2_SlowSpeed.node[47].nic.phy80211p 	ncollisions 	30
scalar Scenario2_SlowSpeed.node[47].nic.mac1609_4 	ReceivedUnicastPackets 	0
scalar Scenario2_SlowSpeed.node[47].nic.mac1609_4 	ReceivedBroadcasts 	14783
scalar Scenario2_SlowSpeed.node[47].nic.mac1609_4 	SentPackets 	117
scalar Scenario2_SlowSpeed.node[47].nic.mac1609_4 	SNIRLostPackets 	196
scalar Scenario2_SlowSpeed.node[47].nic.mac1609_4 	RXTXLostPackets 	2
scalar Scenario2_SlowSpeed.node[47].nic.mac1609_4 	TotalLostPackets 	198
scalar Scenario2_SlowSpeed.node[47].nic.mac1609_4 	DroppedPacketsInMac 	0
scalar Scenario2_SlowSpeed.node[47].nic.mac1609_4 	TooLittleTime 	0
scalar Scenario2_SlowSpeed.node[47].nic.mac1609_4 	TimesIntoBackoff 	118
scalar Scenario2_SlowSpeed.node[47].nic.mac1609_4 	SlotsBackoff 	176
scalar Scenario2_SlowSpeed.node[47].nic.mac1609_4 	NumInternalContention 	0
scalar Scenario2_SlowSpeed.node[47].nic.mac1609_4 	totalBusyTime 	1.555525241507
scalar Scenario2_SlowSpeed.node[47].veinsmobility 	startTime 	2
scalar Scenario2_SlowSpeed.node[47].veinsmobility 	totalTime 	58
scalar Scenario2_SlowSpeed.node[47].veinsmobility 	stopTime 	60
scalar Scenario2_SlowSpeed.node[47].veinsmobility 	minSpeed 	0.43421228121151
scalar Scenario2_SlowSpeed.node[47].veinsmobility 	maxSpeed 	7.9955997145083
scalar Scenario2_SlowSpeed.node[47].veinsmobility 	totalDistance 	269.97887236943
scalar Scenario2_SlowSpeed.node[47].veinsmobility 	totalCO2Emission 	88.936329389505
scalar Scenario2_SlowSpeed.node[116].appl 	generatedWSMs 	1
scalar Scenario2_SlowSpeed.node[116].appl 	receivedWSMs 	14
scalar Scenario2_SlowSpeed.node[116].appl 	generatedBSMs 	96
scalar Scenario2_SlowSpeed.node[116].appl 	receivedBSMs 	18386
scalar Scenario2_SlowSpeed.node[116].appl 	generatedWSAs 	0
scalar Scenario2_SlowSpeed.node[116].appl 	receivedWSAs 	0
scalar Scenario2_SlowSpeed.node[116].appl 	delayWSM 	0.000238462902
scalar Scenario2_SlowSpeed.node[116].appl 	Dist_Propa 	309.95797186595
scalar Scenario2_SlowSpeed.node[116].nic.phy80211p 	busyTime 	0.040589000000019
scalar Scenario2_SlowSpeed.node[116].nic.phy80211p 	ncollisions 	152
scalar Scenario2_SlowSpeed.node[116].nic.mac1609_4 	ReceivedUnicastPackets 	0
scalar Scenario2_SlowSpeed.node[116].nic.mac1609_4 	ReceivedBroadcasts 	18400
scalar Scenario2_SlowSpeed.node[116].nic.mac1609_4 	SentPackets 	97
scalar Scenario2_SlowSpeed.node[116].nic.mac1609_4 	SNIRLostPackets 	294
scalar Scenario2_SlowSpeed.node[116].nic.mac1609_4 	RXTXLostPackets 	169
scalar Scenario2_SlowSpeed.node[116].nic.mac1609_4 	TotalLostPackets 	463
scalar Scenario2_SlowSpeed.node[116].nic.mac1609_4 	DroppedPacketsInMac 	0
scalar Scenario2_SlowSpeed.node[116].nic.mac1609_4 	TooLittleTime 	0
scalar Scenario2_SlowSpeed.node[116].nic.mac1609_4 	TimesIntoBackoff 	97
scalar Scenario2_SlowSpeed.node[116].nic.mac1609_4 	SlotsBackoff 	144
scalar Scenario2_SlowSpeed.node[116].nic.mac1609_4 	NumInternalContention 	0
scalar Scenario2_SlowSpeed.node[116].nic.mac1609_4 	totalBusyTime 	1.942153704632
scalar Scenario2_SlowSpeed.node[116].veinsmobility 	startTime 	12
scalar Scenario2_SlowSpeed.node[116].veinsmobility 	totalTime 	48
scalar Scenario2_SlowSpeed.node[116].veinsmobility 	stopTime 	60
scalar Scenario2_SlowSpeed.node[116].veinsmobility 	minSpeed 	0
scalar Scenario2_SlowSpeed.node[116].veinsmobility 	maxSpeed 	7.9463586301845
scalar Scenario2_SlowSpeed.node[116].veinsmobility 	totalDistance 	102.68309158462
scalar Scenario2_SlowSpeed.node[116].veinsmobility 	totalCO2Emission 	71.995653749705
scalar Scenario2_SlowSpeed.node[117].appl 	generatedWSMs 	1
scalar Scenario2_SlowSpeed.node[117].appl 	receivedWSMs 	16
scalar Scenario2_SlowSpeed.node[117].appl 	generatedBSMs 	96
scalar Scenario2_SlowSpeed.node[117].appl 	receivedBSMs 	13715
scalar Scenario2_SlowSpeed.node[117].appl 	generatedWSAs 	0
scalar Scenario2_SlowSpeed.node[117].appl 	receivedWSAs 	0
scalar Scenario2_SlowSpeed.node[117].appl 	delayWSM 	0.000238968119
scalar Scenario2_SlowSpeed.node[117].appl 	Dist_Propa 	255.48033237646
scalar Scenario2_SlowSpeed.node[117].nic.phy80211p 	busyTime 	0.030119166666675
scalar Scenario2_SlowSpeed.node[117].nic.phy80211p 	ncollisions 	101
scalar Scenario2_SlowSpeed.node[117].nic.mac1609_4 	ReceivedUnicastPackets 	0
scalar Scenario2_SlowSpeed.node[117].nic.mac1609_4 	ReceivedBroadcasts 	13731
scalar Scenario2_SlowSpeed.node[117].nic.mac1609_4 	SentPackets 	97
scalar Scenario2_SlowSpeed.node[117].nic.mac1609_4 	SNIRLostPackets 	132
scalar Scenario2_SlowSpeed.node[117].nic.mac1609_4 	RXTXLostPackets 	140
scalar Scenario2_SlowSpeed.node[117].nic.mac1609_4 	TotalLostPackets 	272
scalar Scenario2_SlowSpeed.node[117].nic.mac1609_4 	DroppedPacketsInMac 	0
scalar Scenario2_SlowSpeed.node[117].nic.mac1609_4 	TooLittleTime 	0
scalar Scenario2_SlowSpeed.node[117].nic.mac1609_4 	TimesIntoBackoff 	97
scalar Scenario2_SlowSpeed.node[117].nic.mac1609_4 	SlotsBackoff 	158
scalar Scenario2_SlowSpeed.node[117].nic.mac1609_4 	NumInternalContention 	0
scalar Scenario2_SlowSpeed.node[117].nic.mac1609_4 	totalBusyTime 	1.451145158535
scalar Scenario2_SlowSpeed.node[117].veinsmobility 	startTime 	12
scalar Scenario2_SlowSpeed.node[117].veinsmobility 	totalTime 	48
scalar Scenario2_SlowSpeed.node[117].veinsmobility 	stopTime 	60
scalar Scenario2_SlowSpeed.node[117].veinsmobility 	minSpeed 	2.2556257702139
scalar Scenario2_SlowSpeed.node[117].veinsmobility 	maxSpeed 	7.9959876975743
scalar Scenario2_SlowSpeed.node[117].veinsmobility 	totalDistance 	368.66565924979
scalar Scenario2_SlowSpeed.node[117].veinsmobility 	totalCO2Emission 	80.178280575168
scalar Scenario2_SlowSpeed.node[118].appl 	generatedWSMs 	1
scalar Scenario2_SlowSpeed.node[118].appl 	receivedWSMs 	14
scalar Scenario2_SlowSpeed.node[118].appl 	generatedBSMs 	96
scalar Scenario2_SlowSpeed.node[118].appl 	receivedBSMs 	18466
scalar Scenario2_SlowSpeed.node[118].appl 	generatedWSAs 	0
scalar Scenario2_SlowSpeed.node[118].appl 	receivedWSAs 	0
scalar Scenario2_SlowSpeed.node[118].appl 	delayWSM 	0.000238423965
scalar Scenario2_SlowSpeed.node[118].appl 	Dist_Propa 	308.21090932197
scalar Scenario2_SlowSpeed.node[118].nic.phy80211p 	busyTime 	0.040836000000019
scalar Scenario2_SlowSpeed.node[118].nic.phy80211p 	ncollisions 	167
scalar Scenario2_SlowSpeed.node[118].nic.mac1609_4 	ReceivedUnicastPackets 	0
scalar Scenario2_SlowSpeed.node[118].nic.mac1609_4 	ReceivedBroadcasts 	18480
scalar Scenario2_SlowSpeed.node[118].nic.mac1609_4 	SentPackets 	97
scalar Scenario2_SlowSpeed.node[118].nic.mac1609_4 	SNIRLostPackets 	328
scalar Scenario2_SlowSpeed.node[118].nic.mac1609_4 	RXTXLostPackets 	170
scalar Scenario2_SlowSpeed.node[118].nic.mac1609_4 	TotalLostPackets 	498
scalar Scenario2_SlowSpeed.node[118].nic.mac1609_4 	DroppedPacketsInMac 	0
scalar Scenario2_SlowSpeed.node[118].nic.mac1609_4 	TooLittleTime 	0
scalar Scenario2_SlowSpeed.node[118].nic.mac1609_4 	TimesIntoBackoff 	97
scalar Scenario2_SlowSpeed.node[118].nic.mac1609_4 	SlotsBackoff 	148
scalar Scenario2_SlowSpeed.node[118].nic.mac1609_4 	NumInternalContention 	0
scalar Scenario2_SlowSpeed.node[118].nic.mac1609_4 	totalBusyTime 	1.952034135729
scalar Scenario2_SlowSpeed.node[118].veinsmobility 	startTime 	12
scalar Scenario2_SlowSpeed.node[118].veinsmobility 	totalTime 	48
scalar Scenario2_SlowSpeed.node[118].veinsmobility 	stopTime 	60
scalar Scenario2_SlowSpeed.node[118].veinsmobility 	minSpeed 	0
scalar Scenario2_SlowSpeed.node[118].veinsmobility 	maxSpeed 	3.1736507565273
scalar Scenario2_SlowSpeed.node[118].veinsmobility 	totalDistance 	43.420892795249
scalar Scenario2_SlowSpeed.node[118].veinsmobility 	totalCO2Emission 	51.512866186797
scalar Scenario2_SlowSpeed.node[119].appl 	generatedWSMs 	1
scalar Scenario2_SlowSpeed.node[119].appl 	receivedWSMs 	13
scalar Scenario2_SlowSpeed.node[119].appl 	generatedBSMs 	96
scalar Scenario2_SlowSpeed.node[119].appl 	receivedBSMs 	18440
scalar Scenario2_SlowSpeed.node[119].appl 	generatedWSAs 	0
scalar Scenario2_SlowSpeed.node[119].appl 	receivedWSAs 	0
scalar Scenario2_SlowSpeed.node[119].appl 	delayWSM 	0.000238372436
scalar Scenario2_SlowSpeed.node[119].appl 	Dist_Propa 	151.10422468626
scalar Scenario2_SlowSpeed.node[119].nic.phy80211p 	busyTime 	0.040722833333352
scalar Scenario2_SlowSpeed.node[119].nic.phy80211p 	ncollisions 	139
scalar Scenario2_SlowSpeed.node[119].nic.mac1609_4 	ReceivedUnicastPackets 	0
scalar Scenario2_SlowSpeed.node[119].nic.mac1609_4 	ReceivedBroadcasts 	18453
scalar Scenario2_SlowSpeed.node[119].nic.mac1609_4 	SentPackets 	97
scalar Scenario2_SlowSpeed.node[119].nic.mac1609_4 	SNIRLostPackets 	304
scalar Scenario2_SlowSpeed.node[119].nic.mac1609_4 	RXTXLostPackets 	171
scalar Scenario2_SlowSpeed.node[119].nic.mac1609_4 	TotalLostPackets 	475
scalar Scenario2_SlowSpeed.node[119].nic.mac1609_4 	DroppedPacketsInMac 	0
scalar Scenario2_SlowSpeed.node[119].nic.mac1609_4 	TooLittleTime 	0
scalar Scenario2_SlowSpeed.node[119].nic.mac1609_4 	TimesIntoBackoff 	97
scalar Scenario2_SlowSpeed.node[119].nic.mac1609_4 	SlotsBackoff 	125
scalar Scenario2_SlowSpeed.node[119].nic.mac1609_4 	NumInternalContention 	0
scalar Scenario2_SlowSpeed.node[119].nic.mac1609_4 	totalBusyTime 	1.94618602477
scalar Scenario2_SlowSpeed.node[119].veinsmobility 	startTime 	12
scalar Scenario2_SlowSpeed.node[119].veinsmobility 	totalTime 	48
scalar Scenario2_SlowSpeed.node[119].veinsmobility 	stopTime 	60
scalar Scenario2_SlowSpeed.node[119].veinsmobility 	minSpeed 	0
scalar Scenario2_SlowSpeed.node[119].veinsmobility 	maxSpeed 	7.5214978709393
scalar Scenario2_SlowSpeed.node[119].veinsmobility 	totalDistance 	158.65069089756
scalar Scenario2_SlowSpeed.node[119].veinsmobility 	totalCO2Emission 	72.648978275518
scalar Scenario2_SlowSpeed.node[120].appl 	generatedWSMs 	1
scalar Scenario2_SlowSpeed.node[120].appl 	receivedWSMs 	16
scalar Scenario2_SlowSpeed.node[120].appl 	generatedBSMs 	96
scalar Scenario2_SlowSpeed.node[120].appl 	receivedBSMs 	15485
scalar Scenario2_SlowSpeed.node[120].appl 	generatedWSAs 	0
scalar Scenario2_SlowSpeed.node[120].appl 	receivedWSAs 	0
scalar Scenario2_SlowSpeed.node[120].appl 	delayWSM 	0.0002387936
scalar Scenario2_SlowSpeed.node[120].appl 	Dist_Propa 	293.61644278188
scalar Scenario2_SlowSpeed.node[120].nic.phy80211p 	busyTime 	0.034085166666679
scalar Scenario2_SlowSpeed.node[120].nic.phy80211p 	ncollisions 	106
scalar Scenario2_SlowSpeed.node[120].nic.mac1609_4 	ReceivedUnicastPackets 	0
scalar Scenario2_SlowSpeed.node[120].nic.mac1609_4 	ReceivedBroadcasts 	15501
scalar Scenario2_SlowSpeed.node[120].nic.mac1609_4 	SentPackets 	97
scalar Scenario2_SlowSpeed.node[120].nic.mac1609_4 	SNIRLostPackets 	190
scalar Scenario2_SlowSpeed.node[120].nic.mac1609_4 	RXTXLostPackets 	156
scalar Scenario2_SlowSpeed.node[120].nic.mac1609_4 	TotalLostPackets 	346
scalar Scenario2_SlowSpeed.node[120].nic.mac1609_4 	DroppedPacketsInMac 	0
scalar Scenario2_SlowSpeed.node[120].nic.mac1609_4 	TooLittleTime 	0
scalar Scenario2_SlowSpeed.node[120].nic.mac1609_4 	TimesIntoBackoff 	97
scalar Scenario2_SlowSpeed.node[120].nic.mac1609_4 	SlotsBackoff 	138
scalar Scenario2_SlowSpeed.node[120].nic.mac1609_4 	NumInternalContention 	0
scalar Scenario2_SlowSpeed.node[120].nic.mac1609_4 	totalBusyTime 	1.636001301096
scalar Scenario2_SlowSpeed.node[120].veinsmobility 	startTime 	12
scalar Scenario2_SlowSpeed.node[120].veinsmobility 	totalTime 	48
scalar Scenario2_SlowSpeed.node[120].veinsmobility 	stopTime 	60
scalar Scenario2_SlowSpeed.node[120].veinsmobility 	minSpeed 	0
scalar Scenario2_SlowSpeed.node[120].veinsmobility 	maxSpeed 	7.9987261597696
scalar Scenario2_SlowSpeed.node[120].veinsmobility 	totalDistance 	306.00941850167
scalar Scenario2_SlowSpeed.node[120].veinsmobility 	totalCO2Emission 	77.79440106094
scalar Scenario2_SlowSpeed.node[121].appl 	generatedWSMs 	1
scalar Scenario2_SlowSpeed.node[121].appl 	receivedWSMs 	15
scalar Scenario2_SlowSpeed.node[121].appl 	generatedBSMs 	96
scalar Scenario2_SlowSpeed.node[121].appl 	receivedBSMs 	18365
scalar Scenario2_SlowSpeed.node[121].appl 	generatedWSAs 	0
scalar Scenario2_SlowSpeed.node[121].appl 	receivedWSAs 	0
scalar Scenario2_SlowSpeed.node[121].appl 	delayWSM 	0.000238486482
scalar Scenario2_SlowSpeed.node[121].appl 	Dist_Propa 	314.74903227746
scalar Scenario2_SlowSpeed.node[121].nic.phy80211p 	busyTime 	0.040554833333352
scalar Scenario2_SlowSpeed.node[121].nic.phy80211p 	ncollisions 	153
scalar Scenario2_SlowSpeed.node[121].nic.mac1609_4 	ReceivedUnicastPackets 	0
scalar Scenario2_SlowSpeed.node[121].nic.mac1609_4 	ReceivedBroadcasts 	18380
scalar Scenario2_SlowSpeed.node[121].nic.mac1609_4 	SentPackets 	97
scalar Scenario2_SlowSpeed.node[121].nic.mac1609_4 	SNIRLostPackets 	297
scalar Scenario2_SlowSpeed.node[121].nic.mac1609_4 	RXTXLostPackets 	168
scalar Scenario2_SlowSpeed.node[121].nic.mac1609_4 	TotalLostPackets 	465
scalar Scenario2_SlowSpeed.node[121].nic.mac1609_4 	DroppedPacketsInMac 	0
scalar Scenario2_SlowSpeed.node[121].nic.mac1609_4 	TooLittleTime 	0
scalar Scenario2_SlowSpeed.node[121].nic.mac1609_4 	TimesIntoBackoff 	97
scalar Scenario2_SlowSpeed.node[121].nic.mac1609_4 	SlotsBackoff 	143
scalar Scenario2_SlowSpeed.node[121].nic.mac1609_4 	NumInternalContention 	0
scalar Scenario2_SlowSpeed.node[121].nic.mac1609_4 	totalBusyTime 	1.940305683845
scalar Scenario2_SlowSpeed.node[121].veinsmobility 	startTime 	12
scalar Scenario2_SlowSpeed.node[121].veinsmobility 	totalTime 	48
scalar Scenario2_SlowSpeed.node[121].veinsmobility 	stopTime 	60
scalar Scenario2_SlowSpeed.node[121].veinsmobility 	minSpeed 	0
scalar Scenario2_SlowSpeed.node[121].veinsmobility 	maxSpeed 	5.9950294753779
scalar Scenario2_SlowSpeed.node[121].veinsmobility 	totalDistance 	55.58751005008
scalar Scenario2_SlowSpeed.node[121].veinsmobility 	totalCO2Emission 	56.867888377594
scalar Scenario2_SlowSpeed.node[122].appl 	generatedWSMs 	1
scalar Scenario2_SlowSpeed.node[122].appl 	receivedWSMs 	5
scalar Scenario2_SlowSpeed.node[122].appl 	generatedBSMs 	96
scalar Scenario2_SlowSpeed.node[122].appl 	receivedBSMs 	14555
scalar Scenario2_SlowSpeed.node[122].appl 	generatedWSAs 	0
scalar Scenario2_SlowSpeed.node[122].appl 	receivedWSAs 	0
scalar Scenario2_SlowSpeed.node[122].appl 	delayWSM 	0.00023820827
scalar Scenario2_SlowSpeed.node[122].appl 	Dist_Propa 	181.76107966778
scalar Scenario2_SlowSpeed.node[122].nic.phy80211p 	busyTime 	0.031848166666677
scalar Scenario2_SlowSpeed.node[122].nic.phy80211p 	ncollisions 	53
scalar Scenario2_SlowSpeed.node[122].nic.mac1609_4 	ReceivedUnicastPackets 	0
scalar Scenario2_SlowSpeed.node[122].nic.mac1609_4 	ReceivedBroadcasts 	14560
scalar Scenario2_SlowSpeed.node[122].nic.mac1609_4 	SentPackets 	97
scalar Scenario2_SlowSpeed.node[122].nic.mac1609_4 	SNIRLostPackets 	133
scalar Scenario2_SlowSpeed.node[122].nic.mac1609_4 	RXTXLostPackets 	152
scalar Scenario2_SlowSpeed.node[122].nic.mac1609_4 	TotalLostPackets 	285
scalar Scenario2_SlowSpeed.node[122].nic.mac1609_4 	DroppedPacketsInMac 	0
scalar Scenario2_SlowSpeed.node[122].nic.mac1609_4 	TooLittleTime 	0
scalar Scenario2_SlowSpeed.node[122].nic.mac1609_4 	TimesIntoBackoff 	97
scalar Scenario2_SlowSpeed.node[122].nic.mac1609_4 	SlotsBackoff 	138
scalar Scenario2_SlowSpeed.node[122].nic.mac1609_4 	NumInternalContention 	0
scalar Scenario2_SlowSpeed.node[122].nic.mac1609_4 	totalBusyTime 	1.531177196206
scalar Scenario2_SlowSpeed.node[122].veinsmobility 	startTime 	12
scalar Scenario2_SlowSpeed.node[122].veinsmobility 	totalTime 	48
scalar Scenario2_SlowSpeed.node[122].veinsmobility 	stopTime 	60
scalar Scenario2_SlowSpeed.node[122].veinsmobility 	minSpeed 	2.3163714007131
scalar Scenario2_SlowSpeed.node[122].veinsmobility 	maxSpeed 	7.9966131793428
scalar Scenario2_SlowSpeed.node[122].veinsmobility 	totalDistance 	325.23235649607
scalar Scenario2_SlowSpeed.node[122].veinsmobility 	totalCO2Emission 	79.1678921284
scalar Scenario2_SlowSpeed.node[123].appl 	generatedWSMs 	1
scalar Scenario2_SlowSpeed.node[123].appl 	receivedWSMs 	16
scalar Scenario2_SlowSpeed.node[123].appl 	generatedBSMs 	96
scalar Scenario2_SlowSpeed.node[123].appl 	receivedBSMs 	16400
scalar Scenario2_SlowSpeed.node[123].appl 	generatedWSAs 	0
scalar Scenario2_SlowSpeed.node[123].appl 	receivedWSAs 	0
scalar Scenario2_SlowSpeed.node[123].appl 	delayWSM 	0.000238687686
scalar Scenario2_SlowSpeed.node[123].appl 	Dist_Propa 	179.72103814393
scalar Scenario2_SlowSpeed.node[123].nic.phy80211p 	busyTime 	0.036074666666681
scalar Scenario2_SlowSpeed.node[123].nic.phy80211p 	ncollisions 	107
scalar Scenario2_SlowSpeed.node[123].nic.mac1609_4 	ReceivedUnicastPackets 	0
scalar Scenario2_SlowSpeed.node[123].nic.mac1609_4 	ReceivedBroadcasts 	16416
scalar Scenario2_SlowSpeed.node[123].nic.mac1609_4 	SentPackets 	97
scalar Scenario2_SlowSpeed.node[123].nic.mac1609_4 	SNIRLostPackets 	192
scalar Scenario2_SlowSpeed.node[123].nic.mac1609_4 	RXTXLostPackets 	161
scalar Scenario2_SlowSpeed.node[123].nic.mac1609_4 	TotalLostPackets 	353
scalar Scenario2_SlowSpeed.node[123].nic.mac1609_4 	DroppedPacketsInMac 	0
scalar Scenario2_SlowSpeed.node[123].nic.mac1609_4 	TooLittleTime 	0
scalar Scenario2_SlowSpeed.node[123].nic.mac1609_4 	TimesIntoBackoff 	97
scalar Scenario2_SlowSpeed.node[123].nic.mac1609_4 	SlotsBackoff 	134
scalar Scenario2_SlowSpeed.node[123].nic.mac1609_4 	NumInternalContention 	0
scalar Scenario2_SlowSpeed.node[123].nic.mac1609_4 	totalBusyTime 	1.731393338699
scalar Scenario2_SlowSpeed.node[123].veinsmobility 	startTime 	12
scalar Scenario2_SlowSpeed.node[123].veinsmobility 	totalTime 	48
scalar Scenario2_SlowSpeed.node[123].veinsmobility 	stopTime 	60
scalar Scenario2_SlowSpeed.node[123].veinsmobility 	minSpeed 	0.44657248678937
scalar Scenario2_SlowSpeed.node[123].veinsmobility 	maxSpeed 	7.9940120015526
scalar Scenario2_SlowSpeed.node[123].veinsmobility 	totalDistance 	281.60598899159
scalar Scenario2_SlowSpeed.node[123].veinsmobility 	totalCO2Emission 	75.439288735697
scalar Scenario2_SlowSpeed.node[3].appl 	generatedWSMs 	1
scalar Scenario2_SlowSpeed.node[3].appl 	receivedWSMs 	8
scalar Scenario2_SlowSpeed.node[3].appl 	generatedBSMs 	118
scalar Scenario2_SlowSpeed.node[3].appl 	receivedBSMs 	18879
scalar Scenario2_SlowSpeed.node[3].appl 	generatedWSAs 	0
scalar Scenario2_SlowSpeed.node[3].appl 	receivedWSAs 	0
scalar Scenario2_SlowSpeed.node[3].appl 	delayWSM 	0.000237850928
scalar Scenario2_SlowSpeed.node[3].appl 	Dist_Propa 	109.55452497011
scalar Scenario2_SlowSpeed.node[3].nic.phy80211p 	busyTime 	0.033840000000016
scalar Scenario2_SlowSpeed.node[3].nic.phy80211p 	ncollisions 	136
scalar Scenario2_SlowSpeed.node[3].nic.mac1609_4 	ReceivedUnicastPackets 	0
scalar Scenario2_SlowSpeed.node[3].nic.mac1609_4 	ReceivedBroadcasts 	18887
scalar Scenario2_SlowSpeed.node[3].nic.mac1609_4 	SentPackets 	119
scalar Scenario2_SlowSpeed.node[3].nic.mac1609_4 	SNIRLostPackets 	291
scalar Scenario2_SlowSpeed.node[3].nic.mac1609_4 	RXTXLostPackets 	174
scalar Scenario2_SlowSpeed.node[3].nic.mac1609_4 	TotalLostPackets 	465
scalar Scenario2_SlowSpeed.node[3].nic.mac1609_4 	DroppedPacketsInMac 	0
scalar Scenario2_SlowSpeed.node[3].nic.mac1609_4 	TooLittleTime 	0
scalar Scenario2_SlowSpeed.node[3].nic.mac1609_4 	TimesIntoBackoff 	119
scalar Scenario2_SlowSpeed.node[3].nic.mac1609_4 	SlotsBackoff 	216
scalar Scenario2_SlowSpeed.node[3].nic.mac1609_4 	NumInternalContention 	0
scalar Scenario2_SlowSpeed.node[3].nic.mac1609_4 	totalBusyTime 	1.992423973603
scalar Scenario2_SlowSpeed.node[3].veinsmobility 	startTime 	1
scalar Scenario2_SlowSpeed.node[3].veinsmobility 	totalTime 	59
scalar Scenario2_SlowSpeed.node[3].veinsmobility 	stopTime 	60
scalar Scenario2_SlowSpeed.node[3].veinsmobility 	minSpeed 	0.57513828796073
scalar Scenario2_SlowSpeed.node[3].veinsmobility 	maxSpeed 	7.9971425564191
scalar Scenario2_SlowSpeed.node[3].veinsmobility 	totalDistance 	420.68628332456
scalar Scenario2_SlowSpeed.node[3].veinsmobility 	totalCO2Emission 	90.619815672181
scalar Scenario2_SlowSpeed.node[125].appl 	generatedWSMs 	1
scalar Scenario2_SlowSpeed.node[125].appl 	receivedWSMs 	15
scalar Scenario2_SlowSpeed.node[125].appl 	generatedBSMs 	94
scalar Scenario2_SlowSpeed.node[125].appl 	receivedBSMs 	17155
scalar Scenario2_SlowSpeed.node[125].appl 	generatedWSAs 	0
scalar Scenario2_SlowSpeed.node[125].appl 	receivedWSAs 	0
scalar Scenario2_SlowSpeed.node[125].appl 	delayWSM 	0.000238552838
scalar Scenario2_SlowSpeed.node[125].appl 	Dist_Propa 	257.60791282601
scalar Scenario2_SlowSpeed.node[125].nic.phy80211p 	busyTime 	0.038580936170229
scalar Scenario2_SlowSpeed.node[125].nic.phy80211p 	ncollisions 	119
scalar Scenario2_SlowSpeed.node[125].nic.mac1609_4 	ReceivedUnicastPackets 	0
scalar Scenario2_SlowSpeed.node[125].nic.mac1609_4 	ReceivedBroadcasts 	17170
scalar Scenario2_SlowSpeed.node[125].nic.mac1609_4 	SentPackets 	95
scalar Scenario2_SlowSpeed.node[125].nic.mac1609_4 	SNIRLostPackets 	225
scalar Scenario2_SlowSpeed.node[125].nic.mac1609_4 	RXTXLostPackets 	166
scalar Scenario2_SlowSpeed.node[125].nic.mac1609_4 	TotalLostPackets 	391
scalar Scenario2_SlowSpeed.node[125].nic.mac1609_4 	DroppedPacketsInMac 	0
scalar Scenario2_SlowSpeed.node[125].nic.mac1609_4 	TooLittleTime 	0
scalar Scenario2_SlowSpeed.node[125].nic.mac1609_4 	TimesIntoBackoff 	95
scalar Scenario2_SlowSpeed.node[125].nic.mac1609_4 	SlotsBackoff 	122
scalar Scenario2_SlowSpeed.node[125].nic.mac1609_4 	NumInternalContention 	0
scalar Scenario2_SlowSpeed.node[125].nic.mac1609_4 	totalBusyTime 	1.810719409704
scalar Scenario2_SlowSpeed.node[125].veinsmobility 	startTime 	13
scalar Scenario2_SlowSpeed.node[125].veinsmobility 	totalTime 	47
scalar Scenario2_SlowSpeed.node[125].veinsmobility 	stopTime 	60
scalar Scenario2_SlowSpeed.node[125].veinsmobility 	minSpeed 	0
scalar Scenario2_SlowSpeed.node[125].veinsmobility 	maxSpeed 	7.9845323955901
scalar Scenario2_SlowSpeed.node[125].veinsmobility 	totalDistance 	233.59019313978
scalar Scenario2_SlowSpeed.node[125].veinsmobility 	totalCO2Emission 	71.512618776055
scalar Scenario2_SlowSpeed.node[126].appl 	generatedWSMs 	1
scalar Scenario2_SlowSpeed.node[126].appl 	receivedWSMs 	15
scalar Scenario2_SlowSpeed.node[126].appl 	generatedBSMs 	94
scalar Scenario2_SlowSpeed.node[126].appl 	receivedBSMs 	18177
scalar Scenario2_SlowSpeed.node[126].appl 	generatedWSAs 	0
scalar Scenario2_SlowSpeed.node[126].appl 	receivedWSAs 	0
scalar Scenario2_SlowSpeed.node[126].appl 	delayWSM 	0.000238462625
scalar Scenario2_SlowSpeed.node[126].appl 	Dist_Propa 	315.31201764793
scalar Scenario2_SlowSpeed.node[126].nic.phy80211p 	busyTime 	0.041037106382997
scalar Scenario2_SlowSpeed.node[126].nic.phy80211p 	ncollisions 	161
scalar Scenario2_SlowSpeed.node[126].nic.mac1609_4 	ReceivedUnicastPackets 	0
scalar Scenario2_SlowSpeed.node[126].nic.mac1609_4 	ReceivedBroadcasts 	18192
scalar Scenario2_SlowSpeed.node[126].nic.mac1609_4 	SentPackets 	95
scalar Scenario2_SlowSpeed.node[126].nic.mac1609_4 	SNIRLostPackets 	313
scalar Scenario2_SlowSpeed.node[126].nic.mac1609_4 	RXTXLostPackets 	169
scalar Scenario2_SlowSpeed.node[126].nic.mac1609_4 	TotalLostPackets 	482
scalar Scenario2_SlowSpeed.node[126].nic.mac1609_4 	DroppedPacketsInMac 	0
scalar Scenario2_SlowSpeed.node[126].nic.mac1609_4 	TooLittleTime 	0
scalar Scenario2_SlowSpeed.node[126].nic.mac1609_4 	TimesIntoBackoff 	95
scalar Scenario2_SlowSpeed.node[126].nic.mac1609_4 	SlotsBackoff 	121
scalar Scenario2_SlowSpeed.node[126].nic.mac1609_4 	NumInternalContention 	0
scalar Scenario2_SlowSpeed.node[126].nic.mac1609_4 	totalBusyTime 	1.92137569734
scalar Scenario2_SlowSpeed.node[126].veinsmobility 	startTime 	13
scalar Scenario2_SlowSpeed.node[126].veinsmobility 	totalTime 	47
scalar Scenario2_SlowSpeed.node[126].veinsmobility 	stopTime 	60
scalar Scenario2_SlowSpeed.node[126].veinsmobility 	minSpeed 	0
scalar Scenario2_SlowSpeed.node[126].veinsmobility 	maxSpeed 	5.0860990736323
scalar Scenario2_SlowSpeed.node[126].veinsmobility 	totalDistance 	43.367370961873
scalar Scenario2_SlowSpeed.node[126].veinsmobility 	totalCO2Emission 	52.31446185991
scalar Scenario2_SlowSpeed.node[48].appl 	generatedWSMs 	1
scalar Scenario2_SlowSpeed.node[48].appl 	receivedWSMs 	15
scalar Scenario2_SlowSpeed.node[48].appl 	generatedBSMs 	116
scalar Scenario2_SlowSpeed.node[48].appl 	receivedBSMs 	19133
scalar Scenario2_SlowSpeed.node[48].appl 	generatedWSAs 	0
scalar Scenario2_SlowSpeed.node[48].appl 	receivedWSAs 	0
scalar Scenario2_SlowSpeed.node[48].appl 	delayWSM 	0.00023863908
scalar Scenario2_SlowSpeed.node[48].appl 	Dist_Propa 	157.9693964899
scalar Scenario2_SlowSpeed.node[48].nic.phy80211p 	busyTime 	0.034920275862085
scalar Scenario2_SlowSpeed.node[48].nic.phy80211p 	ncollisions 	143
scalar Scenario2_SlowSpeed.node[48].nic.mac1609_4 	ReceivedUnicastPackets 	0
scalar Scenario2_SlowSpeed.node[48].nic.mac1609_4 	ReceivedBroadcasts 	19148
scalar Scenario2_SlowSpeed.node[48].nic.mac1609_4 	SentPackets 	117
scalar Scenario2_SlowSpeed.node[48].nic.mac1609_4 	SNIRLostPackets 	280
scalar Scenario2_SlowSpeed.node[48].nic.mac1609_4 	RXTXLostPackets 	160
scalar Scenario2_SlowSpeed.node[48].nic.mac1609_4 	TotalLostPackets 	440
scalar Scenario2_SlowSpeed.node[48].nic.mac1609_4 	DroppedPacketsInMac 	0
scalar Scenario2_SlowSpeed.node[48].nic.mac1609_4 	TooLittleTime 	0
scalar Scenario2_SlowSpeed.node[48].nic.mac1609_4 	TimesIntoBackoff 	117
scalar Scenario2_SlowSpeed.node[48].nic.mac1609_4 	SlotsBackoff 	179
scalar Scenario2_SlowSpeed.node[48].nic.mac1609_4 	NumInternalContention 	0
scalar Scenario2_SlowSpeed.node[48].nic.mac1609_4 	totalBusyTime 	2.021365281665
scalar Scenario2_SlowSpeed.node[48].veinsmobility 	startTime 	2
scalar Scenario2_SlowSpeed.node[48].veinsmobility 	totalTime 	58
scalar Scenario2_SlowSpeed.node[48].veinsmobility 	stopTime 	60
scalar Scenario2_SlowSpeed.node[48].veinsmobility 	minSpeed 	0.55958808761422
scalar Scenario2_SlowSpeed.node[48].veinsmobility 	maxSpeed 	7.9944861674053
scalar Scenario2_SlowSpeed.node[48].veinsmobility 	totalDistance 	342.53296497592
scalar Scenario2_SlowSpeed.node[48].veinsmobility 	totalCO2Emission 	100.11539423118
scalar Scenario2_SlowSpeed.node[127].appl 	generatedWSMs 	1
scalar Scenario2_SlowSpeed.node[127].appl 	receivedWSMs 	9
scalar Scenario2_SlowSpeed.node[127].appl 	generatedBSMs 	94
scalar Scenario2_SlowSpeed.node[127].appl 	receivedBSMs 	17602
scalar Scenario2_SlowSpeed.node[127].appl 	generatedWSAs 	0
scalar Scenario2_SlowSpeed.node[127].appl 	receivedWSAs 	0
scalar Scenario2_SlowSpeed.node[127].appl 	delayWSM 	0.000238065848
scalar Scenario2_SlowSpeed.node[127].appl 	Dist_Propa 	151.4369425558
scalar Scenario2_SlowSpeed.node[127].nic.phy80211p 	busyTime 	0.039586893617038
scalar Scenario2_SlowSpeed.node[127].nic.phy80211p 	ncollisions 	96
scalar Scenario2_SlowSpeed.node[127].nic.mac1609_4 	ReceivedUnicastPackets 	0
scalar Scenario2_SlowSpeed.node[127].nic.mac1609_4 	ReceivedBroadcasts 	17611
scalar Scenario2_SlowSpeed.node[127].nic.mac1609_4 	SentPackets 	95
scalar Scenario2_SlowSpeed.node[127].nic.mac1609_4 	SNIRLostPackets 	246
scalar Scenario2_SlowSpeed.node[127].nic.mac1609_4 	RXTXLostPackets 	174
scalar Scenario2_SlowSpeed.node[127].nic.mac1609_4 	TotalLostPackets 	420
scalar Scenario2_SlowSpeed.node[127].nic.mac1609_4 	DroppedPacketsInMac 	0
scalar Scenario2_SlowSpeed.node[127].nic.mac1609_4 	TooLittleTime 	0
scalar Scenario2_SlowSpeed.node[127].nic.mac1609_4 	TimesIntoBackoff 	95
scalar Scenario2_SlowSpeed.node[127].nic.mac1609_4 	SlotsBackoff 	140
scalar Scenario2_SlowSpeed.node[127].nic.mac1609_4 	NumInternalContention 	0
scalar Scenario2_SlowSpeed.node[127].nic.mac1609_4 	totalBusyTime 	1.853423825517
scalar Scenario2_SlowSpeed.node[127].veinsmobility 	startTime 	13
scalar Scenario2_SlowSpeed.node[127].veinsmobility 	totalTime 	47
scalar Scenario2_SlowSpeed.node[127].veinsmobility 	stopTime 	60
scalar Scenario2_SlowSpeed.node[127].veinsmobility 	minSpeed 	0
scalar Scenario2_SlowSpeed.node[127].veinsmobility 	maxSpeed 	2.3748881724772
scalar Scenario2_SlowSpeed.node[127].veinsmobility 	totalDistance 	55.327749172271
scalar Scenario2_SlowSpeed.node[127].veinsmobility 	totalCO2Emission 	49.622803009147
scalar Scenario2_SlowSpeed.node[128].appl 	generatedWSMs 	1
scalar Scenario2_SlowSpeed.node[128].appl 	receivedWSMs 	12
scalar Scenario2_SlowSpeed.node[128].appl 	generatedBSMs 	92
scalar Scenario2_SlowSpeed.node[128].appl 	receivedBSMs 	17957
scalar Scenario2_SlowSpeed.node[128].appl 	generatedWSAs 	0
scalar Scenario2_SlowSpeed.node[128].appl 	receivedWSAs 	0
scalar Scenario2_SlowSpeed.node[128].appl 	delayWSM 	0.000238314679
scalar Scenario2_SlowSpeed.node[128].appl 	Dist_Propa 	106.16201318952
scalar Scenario2_SlowSpeed.node[128].nic.phy80211p 	busyTime 	0.041403130434801
scalar Scenario2_SlowSpeed.node[128].nic.phy80211p 	ncollisions 	139
scalar Scenario2_SlowSpeed.node[128].nic.mac1609_4 	ReceivedUnicastPackets 	0
scalar Scenario2_SlowSpeed.node[128].nic.mac1609_4 	ReceivedBroadcasts 	17969
scalar Scenario2_SlowSpeed.node[128].nic.mac1609_4 	SentPackets 	93
scalar Scenario2_SlowSpeed.node[128].nic.mac1609_4 	SNIRLostPackets 	307
scalar Scenario2_SlowSpeed.node[128].nic.mac1609_4 	RXTXLostPackets 	172
scalar Scenario2_SlowSpeed.node[128].nic.mac1609_4 	TotalLostPackets 	479
scalar Scenario2_SlowSpeed.node[128].nic.mac1609_4 	DroppedPacketsInMac 	0
scalar Scenario2_SlowSpeed.node[128].nic.mac1609_4 	TooLittleTime 	0
scalar Scenario2_SlowSpeed.node[128].nic.mac1609_4 	TimesIntoBackoff 	93
scalar Scenario2_SlowSpeed.node[128].nic.mac1609_4 	SlotsBackoff 	140
scalar Scenario2_SlowSpeed.node[128].nic.mac1609_4 	NumInternalContention 	0
scalar Scenario2_SlowSpeed.node[128].nic.mac1609_4 	totalBusyTime 	1.895301639689
scalar Scenario2_SlowSpeed.node[128].veinsmobility 	startTime 	14
scalar Scenario2_SlowSpeed.node[128].veinsmobility 	totalTime 	46
scalar Scenario2_SlowSpeed.node[128].veinsmobility 	stopTime 	60
scalar Scenario2_SlowSpeed.node[128].veinsmobility 	minSpeed 	0.037277266174073
scalar Scenario2_SlowSpeed.node[128].veinsmobility 	maxSpeed 	7.980377191134
scalar Scenario2_SlowSpeed.node[128].veinsmobility 	totalDistance 	138.95664590893
scalar Scenario2_SlowSpeed.node[128].veinsmobility 	totalCO2Emission 	60.32061832808
scalar Scenario2_SlowSpeed.node[129].appl 	generatedWSMs 	1
scalar Scenario2_SlowSpeed.node[129].appl 	receivedWSMs 	8
scalar Scenario2_SlowSpeed.node[129].appl 	generatedBSMs 	92
scalar Scenario2_SlowSpeed.node[129].appl 	receivedBSMs 	16295
scalar Scenario2_SlowSpeed.node[129].appl 	generatedWSAs 	0
scalar Scenario2_SlowSpeed.node[129].appl 	receivedWSAs 	0
scalar Scenario2_SlowSpeed.node[129].appl 	delayWSM 	0.000237824201
scalar Scenario2_SlowSpeed.node[129].appl 	Dist_Propa 	112.4729394234
scalar Scenario2_SlowSpeed.node[129].nic.phy80211p 	busyTime 	0.037343304347841
scalar Scenario2_SlowSpeed.node[129].nic.phy80211p 	ncollisions 	88
scalar Scenario2_SlowSpeed.node[129].nic.mac1609_4 	ReceivedUnicastPackets 	0
scalar Scenario2_SlowSpeed.node[129].nic.mac1609_4 	ReceivedBroadcasts 	16303
scalar Scenario2_SlowSpeed.node[129].nic.mac1609_4 	SentPackets 	93
scalar Scenario2_SlowSpeed.node[129].nic.mac1609_4 	SNIRLostPackets 	197
scalar Scenario2_SlowSpeed.node[129].nic.mac1609_4 	RXTXLostPackets 	174
scalar Scenario2_SlowSpeed.node[129].nic.mac1609_4 	TotalLostPackets 	371
scalar Scenario2_SlowSpeed.node[129].nic.mac1609_4 	DroppedPacketsInMac 	0
scalar Scenario2_SlowSpeed.node[129].nic.mac1609_4 	TooLittleTime 	0
scalar Scenario2_SlowSpeed.node[129].nic.mac1609_4 	TimesIntoBackoff 	93
scalar Scenario2_SlowSpeed.node[129].nic.mac1609_4 	SlotsBackoff 	129
scalar Scenario2_SlowSpeed.node[129].nic.mac1609_4 	NumInternalContention 	0
scalar Scenario2_SlowSpeed.node[129].nic.mac1609_4 	totalBusyTime 	1.715709997207
scalar Scenario2_SlowSpeed.node[129].veinsmobility 	startTime 	14
scalar Scenario2_SlowSpeed.node[129].veinsmobility 	totalTime 	46
scalar Scenario2_SlowSpeed.node[129].veinsmobility 	stopTime 	60
scalar Scenario2_SlowSpeed.node[129].veinsmobility 	minSpeed 	4.552695989943e-14
scalar Scenario2_SlowSpeed.node[129].veinsmobility 	maxSpeed 	6.2170943317923
scalar Scenario2_SlowSpeed.node[129].veinsmobility 	totalDistance 	67.998235003909
scalar Scenario2_SlowSpeed.node[129].veinsmobility 	totalCO2Emission 	54.99878213461
scalar Scenario2_SlowSpeed.node[130].appl 	generatedWSMs 	1
scalar Scenario2_SlowSpeed.node[130].appl 	receivedWSMs 	8
scalar Scenario2_SlowSpeed.node[130].appl 	generatedBSMs 	92
scalar Scenario2_SlowSpeed.node[130].appl 	receivedBSMs 	16221
scalar Scenario2_SlowSpeed.node[130].appl 	generatedWSAs 	0
scalar Scenario2_SlowSpeed.node[130].appl 	receivedWSAs 	0
scalar Scenario2_SlowSpeed.node[130].appl 	delayWSM 	0.000237828747
scalar Scenario2_SlowSpeed.node[130].appl 	Dist_Propa 	77.241824130045
scalar Scenario2_SlowSpeed.node[130].nic.phy80211p 	busyTime 	0.037161913043492
scalar Scenario2_SlowSpeed.node[130].nic.phy80211p 	ncollisions 	87
scalar Scenario2_SlowSpeed.node[130].nic.mac1609_4 	ReceivedUnicastPackets 	0
scalar Scenario2_SlowSpeed.node[130].nic.mac1609_4 	ReceivedBroadcasts 	16229
scalar Scenario2_SlowSpeed.node[130].nic.mac1609_4 	SentPackets 	93
scalar Scenario2_SlowSpeed.node[130].nic.mac1609_4 	SNIRLostPackets 	192
scalar Scenario2_SlowSpeed.node[130].nic.mac1609_4 	RXTXLostPackets 	174
scalar Scenario2_SlowSpeed.node[130].nic.mac1609_4 	TotalLostPackets 	366
scalar Scenario2_SlowSpeed.node[130].nic.mac1609_4 	DroppedPacketsInMac 	0
scalar Scenario2_SlowSpeed.node[130].nic.mac1609_4 	TooLittleTime 	0
scalar Scenario2_SlowSpeed.node[130].nic.mac1609_4 	TimesIntoBackoff 	151
scalar Scenario2_SlowSpeed.node[130].nic.mac1609_4 	SlotsBackoff 	218
scalar Scenario2_SlowSpeed.node[130].nic.mac1609_4 	NumInternalContention 	0
scalar Scenario2_SlowSpeed.node[130].nic.mac1609_4 	totalBusyTime 	1.7079100136
scalar Scenario2_SlowSpeed.node[130].veinsmobility 	startTime 	14
scalar Scenario2_SlowSpeed.node[130].veinsmobility 	totalTime 	46
scalar Scenario2_SlowSpeed.node[130].veinsmobility 	stopTime 	60
scalar Scenario2_SlowSpeed.node[130].veinsmobility 	minSpeed 	0
scalar Scenario2_SlowSpeed.node[130].veinsmobility 	maxSpeed 	6.0183958290253
scalar Scenario2_SlowSpeed.node[130].veinsmobility 	totalDistance 	67.385200339196
scalar Scenario2_SlowSpeed.node[130].veinsmobility 	totalCO2Emission 	55.006745868216
scalar Scenario2_SlowSpeed.node[49].appl 	generatedWSMs 	1
scalar Scenario2_SlowSpeed.node[49].appl 	receivedWSMs 	15
scalar Scenario2_SlowSpeed.node[49].appl 	generatedBSMs 	116
scalar Scenario2_SlowSpeed.node[49].appl 	receivedBSMs 	14289
scalar Scenario2_SlowSpeed.node[49].appl 	generatedWSAs 	0
scalar Scenario2_SlowSpeed.node[49].appl 	receivedWSAs 	0
scalar Scenario2_SlowSpeed.node[49].appl 	delayWSM 	0.005485425671
scalar Scenario2_SlowSpeed.node[49].appl 	Dist_Propa 	539.88119643553
scalar Scenario2_SlowSpeed.node[49].nic.phy80211p 	busyTime 	0.026332827586215
scalar Scenario2_SlowSpeed.node[49].nic.phy80211p 	ncollisions 	44
scalar Scenario2_SlowSpeed.node[49].nic.mac1609_4 	ReceivedUnicastPackets 	0
scalar Scenario2_SlowSpeed.node[49].nic.mac1609_4 	ReceivedBroadcasts 	14304
scalar Scenario2_SlowSpeed.node[49].nic.mac1609_4 	SentPackets 	117
scalar Scenario2_SlowSpeed.node[49].nic.mac1609_4 	SNIRLostPackets 	213
scalar Scenario2_SlowSpeed.node[49].nic.mac1609_4 	RXTXLostPackets 	1
scalar Scenario2_SlowSpeed.node[49].nic.mac1609_4 	TotalLostPackets 	214
scalar Scenario2_SlowSpeed.node[49].nic.mac1609_4 	DroppedPacketsInMac 	0
scalar Scenario2_SlowSpeed.node[49].nic.mac1609_4 	TooLittleTime 	0
scalar Scenario2_SlowSpeed.node[49].nic.mac1609_4 	TimesIntoBackoff 	118
scalar Scenario2_SlowSpeed.node[49].nic.mac1609_4 	SlotsBackoff 	186
scalar Scenario2_SlowSpeed.node[49].nic.mac1609_4 	NumInternalContention 	0
scalar Scenario2_SlowSpeed.node[49].nic.mac1609_4 	totalBusyTime 	1.507165
scalar Scenario2_SlowSpeed.node[49].veinsmobility 	startTime 	2
scalar Scenario2_SlowSpeed.node[49].veinsmobility 	totalTime 	58
scalar Scenario2_SlowSpeed.node[49].veinsmobility 	stopTime 	60
scalar Scenario2_SlowSpeed.node[49].veinsmobility 	minSpeed 	4.128183642186
scalar Scenario2_SlowSpeed.node[49].veinsmobility 	maxSpeed 	7.9991118872352
scalar Scenario2_SlowSpeed.node[49].veinsmobility 	totalDistance 	452.07994726397
scalar Scenario2_SlowSpeed.node[49].veinsmobility 	totalCO2Emission 	94.033149115318
scalar Scenario2_SlowSpeed.node[131].appl 	generatedWSMs 	1
scalar Scenario2_SlowSpeed.node[131].appl 	receivedWSMs 	16
scalar Scenario2_SlowSpeed.node[131].appl 	generatedBSMs 	92
scalar Scenario2_SlowSpeed.node[131].appl 	receivedBSMs 	15372
scalar Scenario2_SlowSpeed.node[131].appl 	generatedWSAs 	0
scalar Scenario2_SlowSpeed.node[131].appl 	receivedWSAs 	0
scalar Scenario2_SlowSpeed.node[131].appl 	delayWSM 	0.000238757293
scalar Scenario2_SlowSpeed.node[131].appl 	Dist_Propa 	299.52130888477
scalar Scenario2_SlowSpeed.node[131].nic.phy80211p 	busyTime 	0.035318434782621
scalar Scenario2_SlowSpeed.node[131].nic.phy80211p 	ncollisions 	106
scalar Scenario2_SlowSpeed.node[131].nic.mac1609_4 	ReceivedUnicastPackets 	0
scalar Scenario2_SlowSpeed.node[131].nic.mac1609_4 	ReceivedBroadcasts 	15388
scalar Scenario2_SlowSpeed.node[131].nic.mac1609_4 	SentPackets 	93
scalar Scenario2_SlowSpeed.node[131].nic.mac1609_4 	SNIRLostPackets 	193
scalar Scenario2_SlowSpeed.node[131].nic.mac1609_4 	RXTXLostPackets 	159
scalar Scenario2_SlowSpeed.node[131].nic.mac1609_4 	TotalLostPackets 	352
scalar Scenario2_SlowSpeed.node[131].nic.mac1609_4 	DroppedPacketsInMac 	0
scalar Scenario2_SlowSpeed.node[131].nic.mac1609_4 	TooLittleTime 	0
scalar Scenario2_SlowSpeed.node[131].nic.mac1609_4 	TimesIntoBackoff 	93
scalar Scenario2_SlowSpeed.node[131].nic.mac1609_4 	SlotsBackoff 	143
scalar Scenario2_SlowSpeed.node[131].nic.mac1609_4 	NumInternalContention 	0
scalar Scenario2_SlowSpeed.node[131].nic.mac1609_4 	totalBusyTime 	1.623829341552
scalar Scenario2_SlowSpeed.node[131].veinsmobility 	startTime 	14
scalar Scenario2_SlowSpeed.node[131].veinsmobility 	totalTime 	46
scalar Scenario2_SlowSpeed.node[131].veinsmobility 	stopTime 	60
scalar Scenario2_SlowSpeed.node[131].veinsmobility 	minSpeed 	0.17680583201903
scalar Scenario2_SlowSpeed.node[131].veinsmobility 	maxSpeed 	7.9973660864471
scalar Scenario2_SlowSpeed.node[131].veinsmobility 	totalDistance 	307.83528981071
scalar Scenario2_SlowSpeed.node[131].veinsmobility 	totalCO2Emission 	77.066696235837
scalar Scenario2_SlowSpeed.node[132].appl 	generatedWSMs 	1
scalar Scenario2_SlowSpeed.node[132].appl 	receivedWSMs 	9
scalar Scenario2_SlowSpeed.node[132].appl 	generatedBSMs 	92
scalar Scenario2_SlowSpeed.node[132].appl 	receivedBSMs 	17284
scalar Scenario2_SlowSpeed.node[132].appl 	generatedWSAs 	0
scalar Scenario2_SlowSpeed.node[132].appl 	receivedWSAs 	0
scalar Scenario2_SlowSpeed.node[132].appl 	delayWSM 	0.000238030824
scalar Scenario2_SlowSpeed.node[132].appl 	Dist_Propa 	129.93526977592
scalar Scenario2_SlowSpeed.node[132].nic.phy80211p 	busyTime 	0.039700869565234
scalar Scenario2_SlowSpeed.node[132].nic.phy80211p 	ncollisions 	90
scalar Scenario2_SlowSpeed.node[132].nic.mac1609_4 	ReceivedUnicastPackets 	0
scalar Scenario2_SlowSpeed.node[132].nic.mac1609_4 	ReceivedBroadcasts 	17293
scalar Scenario2_SlowSpeed.node[132].nic.mac1609_4 	SentPackets 	93
scalar Scenario2_SlowSpeed.node[132].nic.mac1609_4 	SNIRLostPackets 	235
scalar Scenario2_SlowSpeed.node[132].nic.mac1609_4 	RXTXLostPackets 	174
scalar Scenario2_SlowSpeed.node[132].nic.mac1609_4 	TotalLostPackets 	409
scalar Scenario2_SlowSpeed.node[132].nic.mac1609_4 	DroppedPacketsInMac 	0
scalar Scenario2_SlowSpeed.node[132].nic.mac1609_4 	TooLittleTime 	0
scalar Scenario2_SlowSpeed.node[132].nic.mac1609_4 	TimesIntoBackoff 	93
scalar Scenario2_SlowSpeed.node[132].nic.mac1609_4 	SlotsBackoff 	136
scalar Scenario2_SlowSpeed.node[132].nic.mac1609_4 	NumInternalContention 	0
scalar Scenario2_SlowSpeed.node[132].nic.mac1609_4 	totalBusyTime 	1.819543743756
scalar Scenario2_SlowSpeed.node[132].veinsmobility 	startTime 	14
scalar Scenario2_SlowSpeed.node[132].veinsmobility 	totalTime 	46
scalar Scenario2_SlowSpeed.node[132].veinsmobility 	stopTime 	60
scalar Scenario2_SlowSpeed.node[132].veinsmobility 	minSpeed 	0
scalar Scenario2_SlowSpeed.node[132].veinsmobility 	maxSpeed 	3.2867726092964
scalar Scenario2_SlowSpeed.node[132].veinsmobility 	totalDistance 	62.732486327644
scalar Scenario2_SlowSpeed.node[132].veinsmobility 	totalCO2Emission 	49.5032643108
scalar Scenario2_SlowSpeed.node[4].appl 	generatedWSMs 	1
scalar Scenario2_SlowSpeed.node[4].appl 	receivedWSMs 	15
scalar Scenario2_SlowSpeed.node[4].appl 	generatedBSMs 	118
scalar Scenario2_SlowSpeed.node[4].appl 	receivedBSMs 	18506
scalar Scenario2_SlowSpeed.node[4].appl 	generatedWSAs 	0
scalar Scenario2_SlowSpeed.node[4].appl 	receivedWSAs 	0
scalar Scenario2_SlowSpeed.node[4].appl 	delayWSM 	0.0002387145
scalar Scenario2_SlowSpeed.node[4].appl 	Dist_Propa 	262.59070778261
scalar Scenario2_SlowSpeed.node[4].nic.phy80211p 	busyTime 	0.033114169491541
scalar Scenario2_SlowSpeed.node[4].nic.phy80211p 	ncollisions 	104
scalar Scenario2_SlowSpeed.node[4].nic.mac1609_4 	ReceivedUnicastPackets 	0
scalar Scenario2_SlowSpeed.node[4].nic.mac1609_4 	ReceivedBroadcasts 	18521
scalar Scenario2_SlowSpeed.node[4].nic.mac1609_4 	SentPackets 	119
scalar Scenario2_SlowSpeed.node[4].nic.mac1609_4 	SNIRLostPackets 	212
scalar Scenario2_SlowSpeed.node[4].nic.mac1609_4 	RXTXLostPackets 	148
scalar Scenario2_SlowSpeed.node[4].nic.mac1609_4 	TotalLostPackets 	360
scalar Scenario2_SlowSpeed.node[4].nic.mac1609_4 	DroppedPacketsInMac 	0
scalar Scenario2_SlowSpeed.node[4].nic.mac1609_4 	TooLittleTime 	0
scalar Scenario2_SlowSpeed.node[4].nic.mac1609_4 	TimesIntoBackoff 	119
scalar Scenario2_SlowSpeed.node[4].nic.mac1609_4 	SlotsBackoff 	222
scalar Scenario2_SlowSpeed.node[4].nic.mac1609_4 	NumInternalContention 	0
scalar Scenario2_SlowSpeed.node[4].nic.mac1609_4 	totalBusyTime 	1.9523112519
scalar Scenario2_SlowSpeed.node[4].veinsmobility 	startTime 	1
scalar Scenario2_SlowSpeed.node[4].veinsmobility 	totalTime 	59
scalar Scenario2_SlowSpeed.node[4].veinsmobility 	stopTime 	60
scalar Scenario2_SlowSpeed.node[4].veinsmobility 	minSpeed 	0
scalar Scenario2_SlowSpeed.node[4].veinsmobility 	maxSpeed 	7.998761665849
scalar Scenario2_SlowSpeed.node[4].veinsmobility 	totalDistance 	221.48228246567
scalar Scenario2_SlowSpeed.node[4].veinsmobility 	totalCO2Emission 	86.618680082818
scalar Scenario2_SlowSpeed.node[133].appl 	generatedWSMs 	1
scalar Scenario2_SlowSpeed.node[133].appl 	receivedWSMs 	10
scalar Scenario2_SlowSpeed.node[133].appl 	generatedBSMs 	92
scalar Scenario2_SlowSpeed.node[133].appl 	receivedBSMs 	17915
scalar Scenario2_SlowSpeed.node[133].appl 	generatedWSAs 	0
scalar Scenario2_SlowSpeed.node[133].appl 	receivedWSAs 	0
scalar Scenario2_SlowSpeed.node[133].appl 	delayWSM 	0.000238272297
scalar Scenario2_SlowSpeed.node[133].appl 	Dist_Propa 	15.796511879426
scalar Scenario2_SlowSpeed.node[133].nic.phy80211p 	busyTime 	0.041329739130453
scalar Scenario2_SlowSpeed.node[133].nic.phy80211p 	ncollisions 	149
scalar Scenario2_SlowSpeed.node[133].nic.mac1609_4 	ReceivedUnicastPackets 	0
scalar Scenario2_SlowSpeed.node[133].nic.mac1609_4 	ReceivedBroadcasts 	17925
scalar Scenario2_SlowSpeed.node[133].nic.mac1609_4 	SentPackets 	93
scalar Scenario2_SlowSpeed.node[133].nic.mac1609_4 	SNIRLostPackets 	321
scalar Scenario2_SlowSpeed.node[133].nic.mac1609_4 	RXTXLostPackets 	174
scalar Scenario2_SlowSpeed.node[133].nic.mac1609_4 	TotalLostPackets 	495
scalar Scenario2_SlowSpeed.node[133].nic.mac1609_4 	DroppedPacketsInMac 	0
scalar Scenario2_SlowSpeed.node[133].nic.mac1609_4 	TooLittleTime 	0
scalar Scenario2_SlowSpeed.node[133].nic.mac1609_4 	TimesIntoBackoff 	93
scalar Scenario2_SlowSpeed.node[133].nic.mac1609_4 	SlotsBackoff 	149
scalar Scenario2_SlowSpeed.node[133].nic.mac1609_4 	NumInternalContention 	0
scalar Scenario2_SlowSpeed.node[133].nic.mac1609_4 	totalBusyTime 	1.891509704503
scalar Scenario2_SlowSpeed.node[133].veinsmobility 	startTime 	14
scalar Scenario2_SlowSpeed.node[133].veinsmobility 	totalTime 	46
scalar Scenario2_SlowSpeed.node[133].veinsmobility 	stopTime 	60
scalar Scenario2_SlowSpeed.node[133].veinsmobility 	minSpeed 	0.10445820526975
scalar Scenario2_SlowSpeed.node[133].veinsmobility 	maxSpeed 	7.9972986633936
scalar Scenario2_SlowSpeed.node[133].veinsmobility 	totalDistance 	170.69921458409
scalar Scenario2_SlowSpeed.node[133].veinsmobility 	totalCO2Emission 	62.419569569484
scalar Scenario2_SlowSpeed.node[134].appl 	generatedWSMs 	1
scalar Scenario2_SlowSpeed.node[134].appl 	receivedWSMs 	9
scalar Scenario2_SlowSpeed.node[134].appl 	generatedBSMs 	92
scalar Scenario2_SlowSpeed.node[134].appl 	receivedBSMs 	17516
scalar Scenario2_SlowSpeed.node[134].appl 	generatedWSAs 	0
scalar Scenario2_SlowSpeed.node[134].appl 	receivedWSAs 	0
scalar Scenario2_SlowSpeed.node[134].appl 	delayWSM 	0.000238113778
scalar Scenario2_SlowSpeed.node[134].appl 	Dist_Propa 	182.26755029624
scalar Scenario2_SlowSpeed.node[134].nic.phy80211p 	busyTime 	0.040284695652191
scalar Scenario2_SlowSpeed.node[134].nic.phy80211p 	ncollisions 	106
scalar Scenario2_SlowSpeed.node[134].nic.mac1609_4 	ReceivedUnicastPackets 	0
scalar Scenario2_SlowSpeed.node[134].nic.mac1609_4 	ReceivedBroadcasts 	17525
scalar Scenario2_SlowSpeed.node[134].nic.mac1609_4 	SentPackets 	93
scalar Scenario2_SlowSpeed.node[134].nic.mac1609_4 	SNIRLostPackets 	260
scalar Scenario2_SlowSpeed.node[134].nic.mac1609_4 	RXTXLostPackets 	174
scalar Scenario2_SlowSpeed.node[134].nic.mac1609_4 	TotalLostPackets 	434
scalar Scenario2_SlowSpeed.node[134].nic.mac1609_4 	DroppedPacketsInMac 	0
scalar Scenario2_SlowSpeed.node[134].nic.mac1609_4 	TooLittleTime 	0
scalar Scenario2_SlowSpeed.node[134].nic.mac1609_4 	TimesIntoBackoff 	93
scalar Scenario2_SlowSpeed.node[134].nic.mac1609_4 	SlotsBackoff 	149
scalar Scenario2_SlowSpeed.node[134].nic.mac1609_4 	NumInternalContention 	0
scalar Scenario2_SlowSpeed.node[134].nic.mac1609_4 	totalBusyTime 	1.845309792522
scalar Scenario2_SlowSpeed.node[134].veinsmobility 	startTime 	14
scalar Scenario2_SlowSpeed.node[134].veinsmobility 	totalTime 	46
scalar Scenario2_SlowSpeed.node[134].veinsmobility 	stopTime 	60
scalar Scenario2_SlowSpeed.node[134].veinsmobility 	minSpeed 	0
scalar Scenario2_SlowSpeed.node[134].veinsmobility 	maxSpeed 	3.0139677684894
scalar Scenario2_SlowSpeed.node[134].veinsmobility 	totalDistance 	45.514716471293
scalar Scenario2_SlowSpeed.node[134].veinsmobility 	totalCO2Emission 	48.764261989621
scalar Scenario2_SlowSpeed.node[135].appl 	generatedWSMs 	1
scalar Scenario2_SlowSpeed.node[135].appl 	receivedWSMs 	9
scalar Scenario2_SlowSpeed.node[135].appl 	generatedBSMs 	92
scalar Scenario2_SlowSpeed.node[135].appl 	receivedBSMs 	17105
scalar Scenario2_SlowSpeed.node[135].appl 	generatedWSAs 	0
scalar Scenario2_SlowSpeed.node[135].appl 	receivedWSAs 	0
scalar Scenario2_SlowSpeed.node[135].appl 	delayWSM 	0.000237963351
scalar Scenario2_SlowSpeed.node[135].appl 	Dist_Propa 	145.35674214235
scalar Scenario2_SlowSpeed.node[135].nic.phy80211p 	busyTime 	0.039266782608712
scalar Scenario2_SlowSpeed.node[135].nic.phy80211p 	ncollisions 	83
scalar Scenario2_SlowSpeed.node[135].nic.mac1609_4 	ReceivedUnicastPackets 	0
scalar Scenario2_SlowSpeed.node[135].nic.mac1609_4 	ReceivedBroadcasts 	17114
scalar Scenario2_SlowSpeed.node[135].nic.mac1609_4 	SentPackets 	93
scalar Scenario2_SlowSpeed.node[135].nic.mac1609_4 	SNIRLostPackets 	222
scalar Scenario2_SlowSpeed.node[135].nic.mac1609_4 	RXTXLostPackets 	174
scalar Scenario2_SlowSpeed.node[135].nic.mac1609_4 	TotalLostPackets 	396
scalar Scenario2_SlowSpeed.node[135].nic.mac1609_4 	DroppedPacketsInMac 	0
scalar Scenario2_SlowSpeed.node[135].nic.mac1609_4 	TooLittleTime 	0
scalar Scenario2_SlowSpeed.node[135].nic.mac1609_4 	TimesIntoBackoff 	93
scalar Scenario2_SlowSpeed.node[135].nic.mac1609_4 	SlotsBackoff 	140
scalar Scenario2_SlowSpeed.node[135].nic.mac1609_4 	NumInternalContention 	0
scalar Scenario2_SlowSpeed.node[135].nic.mac1609_4 	totalBusyTime 	1.800173921836
scalar Scenario2_SlowSpeed.node[135].veinsmobility 	startTime 	14
scalar Scenario2_SlowSpeed.node[135].veinsmobility 	totalTime 	46
scalar Scenario2_SlowSpeed.node[135].veinsmobility 	stopTime 	60
scalar Scenario2_SlowSpeed.node[135].veinsmobility 	minSpeed 	0.25971952628763
scalar Scenario2_SlowSpeed.node[135].veinsmobility 	maxSpeed 	4.0300765405005
scalar Scenario2_SlowSpeed.node[135].veinsmobility 	totalDistance 	76.975584257825
scalar Scenario2_SlowSpeed.node[135].veinsmobility 	totalCO2Emission 	53.496626076073
scalar Scenario2_SlowSpeed.node[136].appl 	generatedWSMs 	1
scalar Scenario2_SlowSpeed.node[136].appl 	receivedWSMs 	6
scalar Scenario2_SlowSpeed.node[136].appl 	generatedBSMs 	92
scalar Scenario2_SlowSpeed.node[136].appl 	receivedBSMs 	14338
scalar Scenario2_SlowSpeed.node[136].appl 	generatedWSAs 	0
scalar Scenario2_SlowSpeed.node[136].appl 	receivedWSAs 	0
scalar Scenario2_SlowSpeed.node[136].appl 	delayWSM 	0.000238104129
scalar Scenario2_SlowSpeed.node[136].appl 	Dist_Propa 	52.298743149566
scalar Scenario2_SlowSpeed.node[136].nic.phy80211p 	busyTime 	0.032641043478271
scalar Scenario2_SlowSpeed.node[136].nic.phy80211p 	ncollisions 	15
scalar Scenario2_SlowSpeed.node[136].nic.mac1609_4 	ReceivedUnicastPackets 	0
scalar Scenario2_SlowSpeed.node[136].nic.mac1609_4 	ReceivedBroadcasts 	14344
scalar Scenario2_SlowSpeed.node[136].nic.mac1609_4 	SentPackets 	93
scalar Scenario2_SlowSpeed.node[136].nic.mac1609_4 	SNIRLostPackets 	86
scalar Scenario2_SlowSpeed.node[136].nic.mac1609_4 	RXTXLostPackets 	161
scalar Scenario2_SlowSpeed.node[136].nic.mac1609_4 	TotalLostPackets 	247
scalar Scenario2_SlowSpeed.node[136].nic.mac1609_4 	DroppedPacketsInMac 	0
scalar Scenario2_SlowSpeed.node[136].nic.mac1609_4 	TooLittleTime 	0
scalar Scenario2_SlowSpeed.node[136].nic.mac1609_4 	TimesIntoBackoff 	93
scalar Scenario2_SlowSpeed.node[136].nic.mac1609_4 	SlotsBackoff 	136
scalar Scenario2_SlowSpeed.node[136].nic.mac1609_4 	NumInternalContention 	0
scalar Scenario2_SlowSpeed.node[136].nic.mac1609_4 	totalBusyTime 	1.503997743226
scalar Scenario2_SlowSpeed.node[136].veinsmobility 	startTime 	14
scalar Scenario2_SlowSpeed.node[136].veinsmobility 	totalTime 	46
scalar Scenario2_SlowSpeed.node[136].veinsmobility 	stopTime 	60
scalar Scenario2_SlowSpeed.node[136].veinsmobility 	minSpeed 	0.44558853910227
scalar Scenario2_SlowSpeed.node[136].veinsmobility 	maxSpeed 	7.9899813973787
scalar Scenario2_SlowSpeed.node[136].veinsmobility 	totalDistance 	117.76961795552
scalar Scenario2_SlowSpeed.node[136].veinsmobility 	totalCO2Emission 	62.749781603504
scalar Scenario2_SlowSpeed.node[137].appl 	generatedWSMs 	1
scalar Scenario2_SlowSpeed.node[137].appl 	receivedWSMs 	9
scalar Scenario2_SlowSpeed.node[137].appl 	generatedBSMs 	92
scalar Scenario2_SlowSpeed.node[137].appl 	receivedBSMs 	17881
scalar Scenario2_SlowSpeed.node[137].appl 	generatedWSAs 	0
scalar Scenario2_SlowSpeed.node[137].appl 	receivedWSAs 	0
scalar Scenario2_SlowSpeed.node[137].appl 	delayWSM 	0.000238185504
scalar Scenario2_SlowSpeed.node[137].appl 	Dist_Propa 	11.493880747131
scalar Scenario2_SlowSpeed.node[137].nic.phy80211p 	busyTime 	0.041265913043497
scalar Scenario2_SlowSpeed.node[137].nic.phy80211p 	ncollisions 	157
scalar Scenario2_SlowSpeed.node[137].nic.mac1609_4 	ReceivedUnicastPackets 	0
scalar Scenario2_SlowSpeed.node[137].nic.mac1609_4 	ReceivedBroadcasts 	17890
scalar Scenario2_SlowSpeed.node[137].nic.mac1609_4 	SentPackets 	93
scalar Scenario2_SlowSpeed.node[137].nic.mac1609_4 	SNIRLostPackets 	329
scalar Scenario2_SlowSpeed.node[137].nic.mac1609_4 	RXTXLostPackets 	174
scalar Scenario2_SlowSpeed.node[137].nic.mac1609_4 	TotalLostPackets 	503
scalar Scenario2_SlowSpeed.node[137].nic.mac1609_4 	DroppedPacketsInMac 	0
scalar Scenario2_SlowSpeed.node[137].nic.mac1609_4 	TooLittleTime 	0
scalar Scenario2_SlowSpeed.node[137].nic.mac1609_4 	TimesIntoBackoff 	93
scalar Scenario2_SlowSpeed.node[137].nic.mac1609_4 	SlotsBackoff 	133
scalar Scenario2_SlowSpeed.node[137].nic.mac1609_4 	NumInternalContention 	0
scalar Scenario2_SlowSpeed.node[137].nic.mac1609_4 	totalBusyTime 	1.888573769876
scalar Scenario2_SlowSpeed.node[137].veinsmobility 	startTime 	14
scalar Scenario2_SlowSpeed.node[137].veinsmobility 	totalTime 	46
scalar Scenario2_SlowSpeed.node[137].veinsmobility 	stopTime 	60
scalar Scenario2_SlowSpeed.node[137].veinsmobility 	minSpeed 	0.0011512119821862
scalar Scenario2_SlowSpeed.node[137].veinsmobility 	maxSpeed 	7.9960292543203
scalar Scenario2_SlowSpeed.node[137].veinsmobility 	totalDistance 	219.5401654672
scalar Scenario2_SlowSpeed.node[137].veinsmobility 	totalCO2Emission 	72.904897170006
scalar Scenario2_SlowSpeed.node[50].appl 	generatedWSMs 	1
scalar Scenario2_SlowSpeed.node[50].appl 	receivedWSMs 	15
scalar Scenario2_SlowSpeed.node[50].appl 	generatedBSMs 	116
scalar Scenario2_SlowSpeed.node[50].appl 	receivedBSMs 	19665
scalar Scenario2_SlowSpeed.node[50].appl 	generatedWSAs 	0
scalar Scenario2_SlowSpeed.node[50].appl 	receivedWSAs 	0
scalar Scenario2_SlowSpeed.node[50].appl 	delayWSM 	0.000238634856
scalar Scenario2_SlowSpeed.node[50].appl 	Dist_Propa 	371.37558847732
scalar Scenario2_SlowSpeed.node[50].nic.phy80211p 	busyTime 	0.035833517241394
scalar Scenario2_SlowSpeed.node[50].nic.phy80211p 	ncollisions 	132
scalar Scenario2_SlowSpeed.node[50].nic.mac1609_4 	ReceivedUnicastPackets 	0
scalar Scenario2_SlowSpeed.node[50].nic.mac1609_4 	ReceivedBroadcasts 	19680
scalar Scenario2_SlowSpeed.node[50].nic.mac1609_4 	SentPackets 	117
scalar Scenario2_SlowSpeed.node[50].nic.mac1609_4 	SNIRLostPackets 	261
scalar Scenario2_SlowSpeed.node[50].nic.mac1609_4 	RXTXLostPackets 	161
scalar Scenario2_SlowSpeed.node[50].nic.mac1609_4 	TotalLostPackets 	422
scalar Scenario2_SlowSpeed.node[50].nic.mac1609_4 	DroppedPacketsInMac 	0
scalar Scenario2_SlowSpeed.node[50].nic.mac1609_4 	TooLittleTime 	0
scalar Scenario2_SlowSpeed.node[50].nic.mac1609_4 	TimesIntoBackoff 	117
scalar Scenario2_SlowSpeed.node[50].nic.mac1609_4 	SlotsBackoff 	170
scalar Scenario2_SlowSpeed.node[50].nic.mac1609_4 	NumInternalContention 	0
scalar Scenario2_SlowSpeed.node[50].nic.mac1609_4 	totalBusyTime 	2.07554931823
scalar Scenario2_SlowSpeed.node[50].veinsmobility 	startTime 	2
scalar Scenario2_SlowSpeed.node[50].veinsmobility 	totalTime 	58
scalar Scenario2_SlowSpeed.node[50].veinsmobility 	stopTime 	60
scalar Scenario2_SlowSpeed.node[50].veinsmobility 	minSpeed 	0
scalar Scenario2_SlowSpeed.node[50].veinsmobility 	maxSpeed 	7.9887561947617
scalar Scenario2_SlowSpeed.node[50].veinsmobility 	totalDistance 	151.56543633743
scalar Scenario2_SlowSpeed.node[50].veinsmobility 	totalCO2Emission 	81.682451808125
scalar Scenario2_SlowSpeed.node[138].appl 	generatedWSMs 	1
scalar Scenario2_SlowSpeed.node[138].appl 	receivedWSMs 	8
scalar Scenario2_SlowSpeed.node[138].appl 	generatedBSMs 	92
scalar Scenario2_SlowSpeed.node[138].appl 	receivedBSMs 	15723
scalar Scenario2_SlowSpeed.node[138].appl 	generatedWSAs 	0
scalar Scenario2_SlowSpeed.node[138].appl 	receivedWSAs 	0
scalar Scenario2_SlowSpeed.node[138].appl 	delayWSM 	0.000238058387
scalar Scenario2_SlowSpeed.node[138].appl 	Dist_Propa 	143.94838626316
scalar Scenario2_SlowSpeed.node[138].nic.phy80211p 	busyTime 	0.035956521739143
scalar Scenario2_SlowSpeed.node[138].nic.phy80211p 	ncollisions 	70
scalar Scenario2_SlowSpeed.node[138].nic.mac1609_4 	ReceivedUnicastPackets 	0
scalar Scenario2_SlowSpeed.node[138].nic.mac1609_4 	ReceivedBroadcasts 	15731
scalar Scenario2_SlowSpeed.node[138].nic.mac1609_4 	SentPackets 	93
scalar Scenario2_SlowSpeed.node[138].nic.mac1609_4 	SNIRLostPackets 	163
scalar Scenario2_SlowSpeed.node[138].nic.mac1609_4 	RXTXLostPackets 	163
scalar Scenario2_SlowSpeed.node[138].nic.mac1609_4 	TotalLostPackets 	326
scalar Scenario2_SlowSpeed.node[138].nic.mac1609_4 	DroppedPacketsInMac 	0
scalar Scenario2_SlowSpeed.node[138].nic.mac1609_4 	TooLittleTime 	0
scalar Scenario2_SlowSpeed.node[138].nic.mac1609_4 	TimesIntoBackoff 	93
scalar Scenario2_SlowSpeed.node[138].nic.mac1609_4 	SlotsBackoff 	158
scalar Scenario2_SlowSpeed.node[138].nic.mac1609_4 	NumInternalContention 	0
scalar Scenario2_SlowSpeed.node[138].nic.mac1609_4 	totalBusyTime 	1.654221932614
scalar Scenario2_SlowSpeed.node[138].veinsmobility 	startTime 	14
scalar Scenario2_SlowSpeed.node[138].veinsmobility 	totalTime 	46
scalar Scenario2_SlowSpeed.node[138].veinsmobility 	stopTime 	60
scalar Scenario2_SlowSpeed.node[138].veinsmobility 	minSpeed 	2.8710507214793
scalar Scenario2_SlowSpeed.node[138].veinsmobility 	maxSpeed 	7.9995235687401
scalar Scenario2_SlowSpeed.node[138].veinsmobility 	totalDistance 	332.97462018339
scalar Scenario2_SlowSpeed.node[138].veinsmobility 	totalCO2Emission 	78.864966225494
scalar Scenario2_SlowSpeed.node[139].appl 	generatedWSMs 	1
scalar Scenario2_SlowSpeed.node[139].appl 	receivedWSMs 	14
scalar Scenario2_SlowSpeed.node[139].appl 	generatedBSMs 	92
scalar Scenario2_SlowSpeed.node[139].appl 	receivedBSMs 	18004
scalar Scenario2_SlowSpeed.node[139].appl 	generatedWSAs 	0
scalar Scenario2_SlowSpeed.node[139].appl 	receivedWSAs 	0
scalar Scenario2_SlowSpeed.node[139].appl 	delayWSM 	0.00023839837
scalar Scenario2_SlowSpeed.node[139].appl 	Dist_Propa 	188.08439777326
scalar Scenario2_SlowSpeed.node[139].nic.phy80211p 	busyTime 	0.041472000000019
scalar Scenario2_SlowSpeed.node[139].nic.phy80211p 	ncollisions 	133
scalar Scenario2_SlowSpeed.node[139].nic.mac1609_4 	ReceivedUnicastPackets 	0
scalar Scenario2_SlowSpeed.node[139].nic.mac1609_4 	ReceivedBroadcasts 	18018
scalar Scenario2_SlowSpeed.node[139].nic.mac1609_4 	SentPackets 	93
scalar Scenario2_SlowSpeed.node[139].nic.mac1609_4 	SNIRLostPackets 	286
scalar Scenario2_SlowSpeed.node[139].nic.mac1609_4 	RXTXLostPackets 	170
scalar Scenario2_SlowSpeed.node[139].nic.mac1609_4 	TotalLostPackets 	456
scalar Scenario2_SlowSpeed.node[139].nic.mac1609_4 	DroppedPacketsInMac 	0
scalar Scenario2_SlowSpeed.node[139].nic.mac1609_4 	TooLittleTime 	0
scalar Scenario2_SlowSpeed.node[139].nic.mac1609_4 	TimesIntoBackoff 	93
scalar Scenario2_SlowSpeed.node[139].nic.mac1609_4 	SlotsBackoff 	137
scalar Scenario2_SlowSpeed.node[139].nic.mac1609_4 	NumInternalContention 	0
scalar Scenario2_SlowSpeed.node[139].nic.mac1609_4 	totalBusyTime 	1.900030026681
scalar Scenario2_SlowSpeed.node[139].veinsmobility 	startTime 	14
scalar Scenario2_SlowSpeed.node[139].veinsmobility 	totalTime 	46
scalar Scenario2_SlowSpeed.node[139].veinsmobility 	stopTime 	60
scalar Scenario2_SlowSpeed.node[139].veinsmobility 	minSpeed 	0
scalar Scenario2_SlowSpeed.node[139].veinsmobility 	maxSpeed 	7.9979434607667
scalar Scenario2_SlowSpeed.node[139].veinsmobility 	totalDistance 	144.6821510057
scalar Scenario2_SlowSpeed.node[139].veinsmobility 	totalCO2Emission 	73.836815190603
scalar Scenario2_SlowSpeed.node[141].appl 	generatedWSMs 	1
scalar Scenario2_SlowSpeed.node[141].appl 	receivedWSMs 	14
scalar Scenario2_SlowSpeed.node[141].appl 	generatedBSMs 	90
scalar Scenario2_SlowSpeed.node[141].appl 	receivedBSMs 	17732
scalar Scenario2_SlowSpeed.node[141].appl 	generatedWSAs 	0
scalar Scenario2_SlowSpeed.node[141].appl 	receivedWSAs 	0
scalar Scenario2_SlowSpeed.node[141].appl 	delayWSM 	0.000238388937
scalar Scenario2_SlowSpeed.node[141].appl 	Dist_Propa 	288.62133612921
scalar Scenario2_SlowSpeed.node[141].nic.phy80211p 	busyTime 	0.041871288888907
scalar Scenario2_SlowSpeed.node[141].nic.phy80211p 	ncollisions 	165
scalar Scenario2_SlowSpeed.node[141].nic.mac1609_4 	ReceivedUnicastPackets 	0
scalar Scenario2_SlowSpeed.node[141].nic.mac1609_4 	ReceivedBroadcasts 	17746
scalar Scenario2_SlowSpeed.node[141].nic.mac1609_4 	SentPackets 	91
scalar Scenario2_SlowSpeed.node[141].nic.mac1609_4 	SNIRLostPackets 	332
scalar Scenario2_SlowSpeed.node[141].nic.mac1609_4 	RXTXLostPackets 	170
scalar Scenario2_SlowSpeed.node[141].nic.mac1609_4 	TotalLostPackets 	502
scalar Scenario2_SlowSpeed.node[141].nic.mac1609_4 	DroppedPacketsInMac 	0
scalar Scenario2_SlowSpeed.node[141].nic.mac1609_4 	TooLittleTime 	0
scalar Scenario2_SlowSpeed.node[141].nic.mac1609_4 	TimesIntoBackoff 	91
scalar Scenario2_SlowSpeed.node[141].nic.mac1609_4 	SlotsBackoff 	138
scalar Scenario2_SlowSpeed.node[141].nic.mac1609_4 	NumInternalContention 	0
scalar Scenario2_SlowSpeed.node[141].nic.mac1609_4 	totalBusyTime 	1.874859605371
scalar Scenario2_SlowSpeed.node[141].veinsmobility 	startTime 	15
scalar Scenario2_SlowSpeed.node[141].veinsmobility 	totalTime 	45
scalar Scenario2_SlowSpeed.node[141].veinsmobility 	stopTime 	60
scalar Scenario2_SlowSpeed.node[141].veinsmobility 	minSpeed 	0
scalar Scenario2_SlowSpeed.node[141].veinsmobility 	maxSpeed 	1.9491384638796
scalar Scenario2_SlowSpeed.node[141].veinsmobility 	totalDistance 	27.309252089337
scalar Scenario2_SlowSpeed.node[141].veinsmobility 	totalCO2Emission 	47.271451431378
scalar Scenario2_SlowSpeed.node[142].appl 	generatedWSMs 	1
scalar Scenario2_SlowSpeed.node[142].appl 	receivedWSMs 	15
scalar Scenario2_SlowSpeed.node[142].appl 	generatedBSMs 	90
scalar Scenario2_SlowSpeed.node[142].appl 	receivedBSMs 	17209
scalar Scenario2_SlowSpeed.node[142].appl 	generatedWSAs 	0
scalar Scenario2_SlowSpeed.node[142].appl 	receivedWSAs 	0
scalar Scenario2_SlowSpeed.node[142].appl 	delayWSM 	0.000238496115
scalar Scenario2_SlowSpeed.node[142].appl 	Dist_Propa 	284.83367339875
scalar Scenario2_SlowSpeed.node[142].nic.phy80211p 	busyTime 	0.040411200000017
scalar Scenario2_SlowSpeed.node[142].nic.phy80211p 	ncollisions 	114
scalar Scenario2_SlowSpeed.node[142].nic.mac1609_4 	ReceivedUnicastPackets 	0
scalar Scenario2_SlowSpeed.node[142].nic.mac1609_4 	ReceivedBroadcasts 	17224
scalar Scenario2_SlowSpeed.node[142].nic.mac1609_4 	SentPackets 	91
scalar Scenario2_SlowSpeed.node[142].nic.mac1609_4 	SNIRLostPackets 	221
scalar Scenario2_SlowSpeed.node[142].nic.mac1609_4 	RXTXLostPackets 	168
scalar Scenario2_SlowSpeed.node[142].nic.mac1609_4 	TotalLostPackets 	389
scalar Scenario2_SlowSpeed.node[142].nic.mac1609_4 	DroppedPacketsInMac 	0
scalar Scenario2_SlowSpeed.node[142].nic.mac1609_4 	TooLittleTime 	0
scalar Scenario2_SlowSpeed.node[142].nic.mac1609_4 	TimesIntoBackoff 	91
scalar Scenario2_SlowSpeed.node[142].nic.mac1609_4 	SlotsBackoff 	145
scalar Scenario2_SlowSpeed.node[142].nic.mac1609_4 	NumInternalContention 	0
scalar Scenario2_SlowSpeed.node[142].nic.mac1609_4 	totalBusyTime 	1.815395457388
scalar Scenario2_SlowSpeed.node[142].veinsmobility 	startTime 	15
scalar Scenario2_SlowSpeed.node[142].veinsmobility 	totalTime 	45
scalar Scenario2_SlowSpeed.node[142].veinsmobility 	stopTime 	60
scalar Scenario2_SlowSpeed.node[142].veinsmobility 	minSpeed 	0
scalar Scenario2_SlowSpeed.node[142].veinsmobility 	maxSpeed 	7.9308313102934
scalar Scenario2_SlowSpeed.node[142].veinsmobility 	totalDistance 	190.47800645151
scalar Scenario2_SlowSpeed.node[142].veinsmobility 	totalCO2Emission 	66.574369351644
scalar Scenario2_SlowSpeed.node[5].appl 	generatedWSMs 	1
scalar Scenario2_SlowSpeed.node[5].appl 	receivedWSMs 	12
scalar Scenario2_SlowSpeed.node[5].appl 	generatedBSMs 	118
scalar Scenario2_SlowSpeed.node[5].appl 	receivedBSMs 	19931
scalar Scenario2_SlowSpeed.node[5].appl 	generatedWSAs 	0
scalar Scenario2_SlowSpeed.node[5].appl 	receivedWSAs 	0
scalar Scenario2_SlowSpeed.node[5].appl 	delayWSM 	0.000238285347
scalar Scenario2_SlowSpeed.node[5].appl 	Dist_Propa 	21.864441563477
scalar Scenario2_SlowSpeed.node[5].nic.phy80211p 	busyTime 	0.035678915254251
scalar Scenario2_SlowSpeed.node[5].nic.phy80211p 	ncollisions 	118
scalar Scenario2_SlowSpeed.node[5].nic.mac1609_4 	ReceivedUnicastPackets 	0
scalar Scenario2_SlowSpeed.node[5].nic.mac1609_4 	ReceivedBroadcasts 	19943
scalar Scenario2_SlowSpeed.node[5].nic.mac1609_4 	SentPackets 	119
scalar Scenario2_SlowSpeed.node[5].nic.mac1609_4 	SNIRLostPackets 	261
scalar Scenario2_SlowSpeed.node[5].nic.mac1609_4 	RXTXLostPackets 	174
scalar Scenario2_SlowSpeed.node[5].nic.mac1609_4 	TotalLostPackets 	435
scalar Scenario2_SlowSpeed.node[5].nic.mac1609_4 	DroppedPacketsInMac 	0
scalar Scenario2_SlowSpeed.node[5].nic.mac1609_4 	TooLittleTime 	0
scalar Scenario2_SlowSpeed.node[5].nic.mac1609_4 	TimesIntoBackoff 	119
scalar Scenario2_SlowSpeed.node[5].nic.mac1609_4 	SlotsBackoff 	194
scalar Scenario2_SlowSpeed.node[5].nic.mac1609_4 	NumInternalContention 	0
scalar Scenario2_SlowSpeed.node[5].nic.mac1609_4 	totalBusyTime 	2.101143889233
scalar Scenario2_SlowSpeed.node[5].veinsmobility 	startTime 	1
scalar Scenario2_SlowSpeed.node[5].veinsmobility 	totalTime 	59
scalar Scenario2_SlowSpeed.node[5].veinsmobility 	stopTime 	60
scalar Scenario2_SlowSpeed.node[5].veinsmobility 	minSpeed 	0
scalar Scenario2_SlowSpeed.node[5].veinsmobility 	maxSpeed 	7.9973915574094
scalar Scenario2_SlowSpeed.node[5].veinsmobility 	totalDistance 	323.59299026291
scalar Scenario2_SlowSpeed.node[5].veinsmobility 	totalCO2Emission 	85.259917822717
scalar Scenario2_SlowSpeed.node[143].appl 	generatedWSMs 	1
scalar Scenario2_SlowSpeed.node[143].appl 	receivedWSMs 	8
scalar Scenario2_SlowSpeed.node[143].appl 	generatedBSMs 	90
scalar Scenario2_SlowSpeed.node[143].appl 	receivedBSMs 	17664
scalar Scenario2_SlowSpeed.node[143].appl 	generatedWSAs 	0
scalar Scenario2_SlowSpeed.node[143].appl 	receivedWSAs 	0
scalar Scenario2_SlowSpeed.node[143].appl 	delayWSM 	0.000238234561
scalar Scenario2_SlowSpeed.node[143].appl 	Dist_Propa 	218.76998360592
scalar Scenario2_SlowSpeed.node[143].nic.phy80211p 	busyTime 	0.042553066666686
scalar Scenario2_SlowSpeed.node[143].nic.phy80211p 	ncollisions 	147
scalar Scenario2_SlowSpeed.node[143].nic.mac1609_4 	ReceivedUnicastPackets 	0
scalar Scenario2_SlowSpeed.node[143].nic.mac1609_4 	ReceivedBroadcasts 	17672
scalar Scenario2_SlowSpeed.node[143].nic.mac1609_4 	SentPackets 	91
scalar Scenario2_SlowSpeed.node[143].nic.mac1609_4 	SNIRLostPackets 	493
scalar Scenario2_SlowSpeed.node[143].nic.mac1609_4 	RXTXLostPackets 	0
scalar Scenario2_SlowSpeed.node[143].nic.mac1609_4 	TotalLostPackets 	493
scalar Scenario2_SlowSpeed.node[143].nic.mac1609_4 	DroppedPacketsInMac 	0
scalar Scenario2_SlowSpeed.node[143].nic.mac1609_4 	TooLittleTime 	0
scalar Scenario2_SlowSpeed.node[143].nic.mac1609_4 	TimesIntoBackoff 	91
scalar Scenario2_SlowSpeed.node[143].nic.mac1609_4 	SlotsBackoff 	132
scalar Scenario2_SlowSpeed.node[143].nic.mac1609_4 	NumInternalContention 	0
scalar Scenario2_SlowSpeed.node[143].nic.mac1609_4 	totalBusyTime 	1.864651757088
scalar Scenario2_SlowSpeed.node[143].veinsmobility 	startTime 	15
scalar Scenario2_SlowSpeed.node[143].veinsmobility 	totalTime 	45
scalar Scenario2_SlowSpeed.node[143].veinsmobility 	stopTime 	60
scalar Scenario2_SlowSpeed.node[143].veinsmobility 	minSpeed 	0
scalar Scenario2_SlowSpeed.node[143].veinsmobility 	maxSpeed 	2.1746889111157
scalar Scenario2_SlowSpeed.node[143].veinsmobility 	totalDistance 	32.830371522545
scalar Scenario2_SlowSpeed.node[143].veinsmobility 	totalCO2Emission 	48.744099937836
scalar Scenario2_SlowSpeed.node[144].appl 	generatedWSMs 	1
scalar Scenario2_SlowSpeed.node[144].appl 	receivedWSMs 	5
scalar Scenario2_SlowSpeed.node[144].appl 	generatedBSMs 	90
scalar Scenario2_SlowSpeed.node[144].appl 	receivedBSMs 	12941
scalar Scenario2_SlowSpeed.node[144].appl 	generatedWSAs 	0
scalar Scenario2_SlowSpeed.node[144].appl 	receivedWSAs 	0
scalar Scenario2_SlowSpeed.node[144].appl 	delayWSM 	0.000238251948
scalar Scenario2_SlowSpeed.node[144].appl 	Dist_Propa 	248.09043513341
scalar Scenario2_SlowSpeed.node[144].nic.phy80211p 	busyTime 	0.03009333333334
scalar Scenario2_SlowSpeed.node[144].nic.phy80211p 	ncollisions 	14
scalar Scenario2_SlowSpeed.node[144].nic.mac1609_4 	ReceivedUnicastPackets 	0
scalar Scenario2_SlowSpeed.node[144].nic.mac1609_4 	ReceivedBroadcasts 	12946
scalar Scenario2_SlowSpeed.node[144].nic.mac1609_4 	SentPackets 	91
scalar Scenario2_SlowSpeed.node[144].nic.mac1609_4 	SNIRLostPackets 	69
scalar Scenario2_SlowSpeed.node[144].nic.mac1609_4 	RXTXLostPackets 	146
scalar Scenario2_SlowSpeed.node[144].nic.mac1609_4 	TotalLostPackets 	215
scalar Scenario2_SlowSpeed.node[144].nic.mac1609_4 	DroppedPacketsInMac 	0
scalar Scenario2_SlowSpeed.node[144].nic.mac1609_4 	TooLittleTime 	0
scalar Scenario2_SlowSpeed.node[144].nic.mac1609_4 	TimesIntoBackoff 	91
scalar Scenario2_SlowSpeed.node[144].nic.mac1609_4 	SlotsBackoff 	133
scalar Scenario2_SlowSpeed.node[144].nic.mac1609_4 	NumInternalContention 	0
scalar Scenario2_SlowSpeed.node[144].nic.mac1609_4 	totalBusyTime 	1.358329201365
scalar Scenario2_SlowSpeed.node[144].veinsmobility 	startTime 	15
scalar Scenario2_SlowSpeed.node[144].veinsmobility 	totalTime 	45
scalar Scenario2_SlowSpeed.node[144].veinsmobility 	stopTime 	60
[...]
scalar Scenario2_SlowSpeed.node[257].appl 	generatedWSAs 	0
scalar Scenario2_SlowSpeed.node[257].appl 	receivedWSAs 	0
scalar Scenario2_SlowSpeed.node[257].appl 	delayWSM 	-1
scalar Scenario2_SlowSpeed.node[257].appl 	Dist_Propa 	-1
scalar Scenario2_SlowSpeed.node[257].nic.phy80211p 	busyTime 	0.007176
scalar Scenario2_SlowSpeed.node[257].nic.phy80211p 	ncollisions 	2
scalar Scenario2_SlowSpeed.node[257].nic.mac1609_4 	ReceivedUnicastPackets 	0
scalar Scenario2_SlowSpeed.node[257].nic.mac1609_4 	ReceivedBroadcasts 	274
scalar Scenario2_SlowSpeed.node[257].nic.mac1609_4 	SentPackets 	8
scalar Scenario2_SlowSpeed.node[257].nic.mac1609_4 	SNIRLostPackets 	2
scalar Scenario2_SlowSpeed.node[257].nic.mac1609_4 	RXTXLostPackets 	0
scalar Scenario2_SlowSpeed.node[257].nic.mac1609_4 	TotalLostPackets 	2
scalar Scenario2_SlowSpeed.node[257].nic.mac1609_4 	DroppedPacketsInMac 	0
scalar Scenario2_SlowSpeed.node[257].nic.mac1609_4 	TooLittleTime 	0
scalar Scenario2_SlowSpeed.node[257].nic.mac1609_4 	TimesIntoBackoff 	8
scalar Scenario2_SlowSpeed.node[257].nic.mac1609_4 	SlotsBackoff 	13
scalar Scenario2_SlowSpeed.node[257].nic.mac1609_4 	NumInternalContention 	0
scalar Scenario2_SlowSpeed.node[257].nic.mac1609_4 	totalBusyTime 	0.029544
scalar Scenario2_SlowSpeed.node[257].veinsmobility 	startTime 	56
scalar Scenario2_SlowSpeed.node[257].veinsmobility 	totalTime 	4
scalar Scenario2_SlowSpeed.node[257].veinsmobility 	stopTime 	60
scalar Scenario2_SlowSpeed.node[257].veinsmobility 	minSpeed 	2.1940109600276
scalar Scenario2_SlowSpeed.node[257].veinsmobility 	maxSpeed 	7.9843347878265
scalar Scenario2_SlowSpeed.node[257].veinsmobility 	totalDistance 	16.969794114381
scalar Scenario2_SlowSpeed.node[257].veinsmobility 	totalCO2Emission 	12.730751709568
scalar Scenario2_SlowSpeed.node[260].appl 	generatedWSMs 	0
scalar Scenario2_SlowSpeed.node[260].appl 	receivedWSMs 	0
scalar Scenario2_SlowSpeed.node[260].appl 	generatedBSMs 	4
scalar Scenario2_SlowSpeed.node[260].appl 	receivedBSMs 	136
scalar Scenario2_SlowSpeed.node[260].appl 	generatedWSAs 	0
scalar Scenario2_SlowSpeed.node[260].appl 	receivedWSAs 	0
scalar Scenario2_SlowSpeed.node[260].appl 	delayWSM 	-1
scalar Scenario2_SlowSpeed.node[260].appl 	Dist_Propa 	-1
scalar Scenario2_SlowSpeed.node[260].nic.phy80211p 	busyTime 	0.007072
scalar Scenario2_SlowSpeed.node[260].nic.phy80211p 	ncollisions 	0
scalar Scenario2_SlowSpeed.node[260].nic.mac1609_4 	ReceivedUnicastPackets 	0
scalar Scenario2_SlowSpeed.node[260].nic.mac1609_4 	ReceivedBroadcasts 	136
scalar Scenario2_SlowSpeed.node[260].nic.mac1609_4 	SentPackets 	4
scalar Scenario2_SlowSpeed.node[260].nic.mac1609_4 	SNIRLostPackets 	0
scalar Scenario2_SlowSpeed.node[260].nic.mac1609_4 	RXTXLostPackets 	0
scalar Scenario2_SlowSpeed.node[260].nic.mac1609_4 	TotalLostPackets 	0
scalar Scenario2_SlowSpeed.node[260].nic.mac1609_4 	DroppedPacketsInMac 	0
scalar Scenario2_SlowSpeed.node[260].nic.mac1609_4 	TooLittleTime 	0
scalar Scenario2_SlowSpeed.node[260].nic.mac1609_4 	TimesIntoBackoff 	4
scalar Scenario2_SlowSpeed.node[260].nic.mac1609_4 	SlotsBackoff 	1
scalar Scenario2_SlowSpeed.node[260].nic.mac1609_4 	NumInternalContention 	0
scalar Scenario2_SlowSpeed.node[260].nic.mac1609_4 	totalBusyTime 	0.014564
scalar Scenario2_SlowSpeed.node[260].veinsmobility 	startTime 	58
scalar Scenario2_SlowSpeed.node[260].veinsmobility 	totalTime 	2
scalar Scenario2_SlowSpeed.node[260].veinsmobility 	stopTime 	60
scalar Scenario2_SlowSpeed.node[260].veinsmobility 	minSpeed 	2.6719666774688
scalar Scenario2_SlowSpeed.node[260].veinsmobility 	maxSpeed 	4.5947360364977
scalar Scenario2_SlowSpeed.node[260].veinsmobility 	totalDistance 	5.4853506782262
scalar Scenario2_SlowSpeed.node[260].veinsmobility 	totalCO2Emission 	3.4697538803579
scalar Scenario2_SlowSpeed.node[124].appl 	generatedWSMs 	1
scalar Scenario2_SlowSpeed.node[124].appl 	receivedWSMs 	11
scalar Scenario2_SlowSpeed.node[124].appl 	generatedBSMs 	96
scalar Scenario2_SlowSpeed.node[124].appl 	receivedBSMs 	9931
scalar Scenario2_SlowSpeed.node[124].appl 	generatedWSAs 	0
scalar Scenario2_SlowSpeed.node[124].appl 	receivedWSAs 	0
scalar Scenario2_SlowSpeed.node[124].appl 	delayWSM 	0.000531099421
scalar Scenario2_SlowSpeed.node[124].appl 	Dist_Propa 	153.74639511002
scalar Scenario2_SlowSpeed.node[124].nic.phy80211p 	busyTime 	0.022129
scalar Scenario2_SlowSpeed.node[124].nic.phy80211p 	ncollisions 	60
scalar Scenario2_SlowSpeed.node[124].nic.mac1609_4 	ReceivedUnicastPackets 	0
scalar Scenario2_SlowSpeed.node[124].nic.mac1609_4 	ReceivedBroadcasts 	9942
scalar Scenario2_SlowSpeed.node[124].nic.mac1609_4 	SentPackets 	97
scalar Scenario2_SlowSpeed.node[124].nic.mac1609_4 	SNIRLostPackets 	168
scalar Scenario2_SlowSpeed.node[124].nic.mac1609_4 	RXTXLostPackets 	0
scalar Scenario2_SlowSpeed.node[124].nic.mac1609_4 	TotalLostPackets 	168
scalar Scenario2_SlowSpeed.node[124].nic.mac1609_4 	DroppedPacketsInMac 	0
scalar Scenario2_SlowSpeed.node[124].nic.mac1609_4 	TooLittleTime 	0
scalar Scenario2_SlowSpeed.node[124].nic.mac1609_4 	TimesIntoBackoff 	97
scalar Scenario2_SlowSpeed.node[124].nic.mac1609_4 	SlotsBackoff 	147
scalar Scenario2_SlowSpeed.node[124].nic.mac1609_4 	NumInternalContention 	0
scalar Scenario2_SlowSpeed.node[124].nic.mac1609_4 	totalBusyTime 	1.052313098595
scalar Scenario2_SlowSpeed.node[124].veinsmobility 	startTime 	12
scalar Scenario2_SlowSpeed.node[124].veinsmobility 	totalTime 	48
scalar Scenario2_SlowSpeed.node[124].veinsmobility 	stopTime 	60
scalar Scenario2_SlowSpeed.node[124].veinsmobility 	minSpeed 	3.5142798499626
scalar Scenario2_SlowSpeed.node[124].veinsmobility 	maxSpeed 	7.9931438549119
scalar Scenario2_SlowSpeed.node[124].veinsmobility 	totalDistance 	370.97955073609
scalar Scenario2_SlowSpeed.node[124].veinsmobility 	totalCO2Emission 	79.169155370624
scalar Scenario2_SlowSpeed.node[263].appl 	generatedWSMs 	0
scalar Scenario2_SlowSpeed.node[263].appl 	receivedWSMs 	0
scalar Scenario2_SlowSpeed.node[263].appl 	generatedBSMs 	0
scalar Scenario2_SlowSpeed.node[263].appl 	receivedBSMs 	0
scalar Scenario2_SlowSpeed.node[263].appl 	generatedWSAs 	0
scalar Scenario2_SlowSpeed.node[263].appl 	receivedWSAs 	0
scalar Scenario2_SlowSpeed.node[263].appl 	delayWSM 	-1
scalar Scenario2_SlowSpeed.node[263].appl 	Dist_Propa 	-1
scalar Scenario2_SlowSpeed.node[263].nic.phy80211p 	busyTime 	-nan
scalar Scenario2_SlowSpeed.node[263].nic.phy80211p 	ncollisions 	0
scalar Scenario2_SlowSpeed.node[263].nic.mac1609_4 	ReceivedUnicastPackets 	0
scalar Scenario2_SlowSpeed.node[263].nic.mac1609_4 	ReceivedBroadcasts 	0
scalar Scenario2_SlowSpeed.node[263].nic.mac1609_4 	SentPackets 	0
scalar Scenario2_SlowSpeed.node[263].nic.mac1609_4 	SNIRLostPackets 	0
scalar Scenario2_SlowSpeed.node[263].nic.mac1609_4 	RXTXLostPackets 	0
scalar Scenario2_SlowSpeed.node[263].nic.mac1609_4 	TotalLostPackets 	0
scalar Scenario2_SlowSpeed.node[263].nic.mac1609_4 	DroppedPacketsInMac 	0
scalar Scenario2_SlowSpeed.node[263].nic.mac1609_4 	TooLittleTime 	0
scalar Scenario2_SlowSpeed.node[263].nic.mac1609_4 	TimesIntoBackoff 	0
scalar Scenario2_SlowSpeed.node[263].nic.mac1609_4 	SlotsBackoff 	0
scalar Scenario2_SlowSpeed.node[263].nic.mac1609_4 	NumInternalContention 	0
scalar Scenario2_SlowSpeed.node[263].nic.mac1609_4 	totalBusyTime 	0
scalar Scenario2_SlowSpeed.node[263].veinsmobility 	startTime 	60
scalar Scenario2_SlowSpeed.node[263].veinsmobility 	totalTime 	0
scalar Scenario2_SlowSpeed.node[263].veinsmobility 	stopTime 	60
scalar Scenario2_SlowSpeed.node[263].veinsmobility 	totalDistance 	0
scalar Scenario2_SlowSpeed.node[263].veinsmobility 	totalCO2Emission 	0
scalar Scenario2_SlowSpeed.node[140].appl 	generatedWSMs 	1
scalar Scenario2_SlowSpeed.node[140].appl 	receivedWSMs 	7
scalar Scenario2_SlowSpeed.node[140].appl 	generatedBSMs 	92
scalar Scenario2_SlowSpeed.node[140].appl 	receivedBSMs 	9211
scalar Scenario2_SlowSpeed.node[140].appl 	generatedWSAs 	0
scalar Scenario2_SlowSpeed.node[140].appl 	receivedWSAs 	0
scalar Scenario2_SlowSpeed.node[140].appl 	delayWSM 	0.000822149311
scalar Scenario2_SlowSpeed.node[140].appl 	Dist_Propa 	166.95647985297
scalar Scenario2_SlowSpeed.node[140].nic.phy80211p 	busyTime 	0.021274086956521
scalar Scenario2_SlowSpeed.node[140].nic.phy80211p 	ncollisions 	53
scalar Scenario2_SlowSpeed.node[140].nic.mac1609_4 	ReceivedUnicastPackets 	0
scalar Scenario2_SlowSpeed.node[140].nic.mac1609_4 	ReceivedBroadcasts 	9218
scalar Scenario2_SlowSpeed.node[140].nic.mac1609_4 	SentPackets 	93
scalar Scenario2_SlowSpeed.node[140].nic.mac1609_4 	SNIRLostPackets 	124
scalar Scenario2_SlowSpeed.node[140].nic.mac1609_4 	RXTXLostPackets 	19
scalar Scenario2_SlowSpeed.node[140].nic.mac1609_4 	TotalLostPackets 	143
scalar Scenario2_SlowSpeed.node[140].nic.mac1609_4 	DroppedPacketsInMac 	0
scalar Scenario2_SlowSpeed.node[140].nic.mac1609_4 	TooLittleTime 	0
scalar Scenario2_SlowSpeed.node[140].nic.mac1609_4 	TimesIntoBackoff 	93
scalar Scenario2_SlowSpeed.node[140].nic.mac1609_4 	SlotsBackoff 	127
scalar Scenario2_SlowSpeed.node[140].nic.mac1609_4 	NumInternalContention 	0
scalar Scenario2_SlowSpeed.node[140].nic.mac1609_4 	totalBusyTime 	0.975229185548
scalar Scenario2_SlowSpeed.node[140].veinsmobility 	startTime 	14
scalar Scenario2_SlowSpeed.node[140].veinsmobility 	totalTime 	46
scalar Scenario2_SlowSpeed.node[140].veinsmobility 	stopTime 	60
scalar Scenario2_SlowSpeed.node[140].veinsmobility 	minSpeed 	3.6742379713512
scalar Scenario2_SlowSpeed.node[140].veinsmobility 	maxSpeed 	7.9989194545639
scalar Scenario2_SlowSpeed.node[140].veinsmobility 	totalDistance 	355.82360141942
scalar Scenario2_SlowSpeed.node[140].veinsmobility 	totalCO2Emission 	76.094373444042
scalar Scenario2_SlowSpeed.node[146].appl 	generatedWSMs 	1
scalar Scenario2_SlowSpeed.node[146].appl 	receivedWSMs 	6
scalar Scenario2_SlowSpeed.node[146].appl 	generatedBSMs 	90
scalar Scenario2_SlowSpeed.node[146].appl 	receivedBSMs 	8604
scalar Scenario2_SlowSpeed.node[146].appl 	generatedWSAs 	0
scalar Scenario2_SlowSpeed.node[146].appl 	receivedWSAs 	0
scalar Scenario2_SlowSpeed.node[146].appl 	delayWSM 	0.000822198489
scalar Scenario2_SlowSpeed.node[146].appl 	Dist_Propa 	180.87709528628
scalar Scenario2_SlowSpeed.node[146].nic.phy80211p 	busyTime 	0.02027591111111
scalar Scenario2_SlowSpeed.node[146].nic.phy80211p 	ncollisions 	48
scalar Scenario2_SlowSpeed.node[146].nic.mac1609_4 	ReceivedUnicastPackets 	0
scalar Scenario2_SlowSpeed.node[146].nic.mac1609_4 	ReceivedBroadcasts 	8610
scalar Scenario2_SlowSpeed.node[146].nic.mac1609_4 	SentPackets 	91
scalar Scenario2_SlowSpeed.node[146].nic.mac1609_4 	SNIRLostPackets 	114
scalar Scenario2_SlowSpeed.node[146].nic.mac1609_4 	RXTXLostPackets 	10
scalar Scenario2_SlowSpeed.node[146].nic.mac1609_4 	TotalLostPackets 	124
scalar Scenario2_SlowSpeed.node[146].nic.mac1609_4 	DroppedPacketsInMac 	0
scalar Scenario2_SlowSpeed.node[146].nic.mac1609_4 	TooLittleTime 	0
scalar Scenario2_SlowSpeed.node[146].nic.mac1609_4 	TimesIntoBackoff 	91
scalar Scenario2_SlowSpeed.node[146].nic.mac1609_4 	SlotsBackoff 	145
scalar Scenario2_SlowSpeed.node[146].nic.mac1609_4 	NumInternalContention 	0
scalar Scenario2_SlowSpeed.node[146].nic.mac1609_4 	totalBusyTime 	0.911139185777
scalar Scenario2_SlowSpeed.node[146].veinsmobility 	startTime 	15
scalar Scenario2_SlowSpeed.node[146].veinsmobility 	totalTime 	45
scalar Scenario2_SlowSpeed.node[146].veinsmobility 	stopTime 	60
scalar Scenario2_SlowSpeed.node[146].veinsmobility 	minSpeed 	2.1613891165237
scalar Scenario2_SlowSpeed.node[146].veinsmobility 	maxSpeed 	7.9981589262839
scalar Scenario2_SlowSpeed.node[146].veinsmobility 	totalDistance 	341.80422176181
scalar Scenario2_SlowSpeed.node[146].veinsmobility 	totalCO2Emission 	75.68100848143
scalar Scenario2_SlowSpeed.node[156].appl 	generatedWSMs 	1
scalar Scenario2_SlowSpeed.node[156].appl 	receivedWSMs 	6
scalar Scenario2_SlowSpeed.node[156].appl 	generatedBSMs 	86
scalar Scenario2_SlowSpeed.node[156].appl 	receivedBSMs 	8026
scalar Scenario2_SlowSpeed.node[156].appl 	generatedWSAs 	0
scalar Scenario2_SlowSpeed.node[156].appl 	receivedWSAs 	0
scalar Scenario2_SlowSpeed.node[156].appl 	delayWSM 	0.000822241903
scalar Scenario2_SlowSpeed.node[156].appl 	Dist_Propa 	195.94623335166
scalar Scenario2_SlowSpeed.node[156].nic.phy80211p 	busyTime 	0.019752558139534
scalar Scenario2_SlowSpeed.node[156].nic.phy80211p 	ncollisions 	42
scalar Scenario2_SlowSpeed.node[156].nic.mac1609_4 	ReceivedUnicastPackets 	0
scalar Scenario2_SlowSpeed.node[156].nic.mac1609_4 	ReceivedBroadcasts 	8032
scalar Scenario2_SlowSpeed.node[156].nic.mac1609_4 	SentPackets 	87
scalar Scenario2_SlowSpeed.node[156].nic.mac1609_4 	SNIRLostPackets 	98
scalar Scenario2_SlowSpeed.node[156].nic.mac1609_4 	RXTXLostPackets 	10
scalar Scenario2_SlowSpeed.node[156].nic.mac1609_4 	TotalLostPackets 	108
scalar Scenario2_SlowSpeed.node[156].nic.mac1609_4 	DroppedPacketsInMac 	0
scalar Scenario2_SlowSpeed.node[156].nic.mac1609_4 	TooLittleTime 	0
scalar Scenario2_SlowSpeed.node[156].nic.mac1609_4 	TimesIntoBackoff 	87
scalar Scenario2_SlowSpeed.node[156].nic.mac1609_4 	SlotsBackoff 	134
scalar Scenario2_SlowSpeed.node[156].nic.mac1609_4 	NumInternalContention 	0
scalar Scenario2_SlowSpeed.node[156].nic.mac1609_4 	totalBusyTime 	0.849983190803
scalar Scenario2_SlowSpeed.node[156].veinsmobility 	startTime 	17
scalar Scenario2_SlowSpeed.node[156].veinsmobility 	totalTime 	43
scalar Scenario2_SlowSpeed.node[156].veinsmobility 	stopTime 	60
scalar Scenario2_SlowSpeed.node[156].veinsmobility 	minSpeed 	2.6234599548635
scalar Scenario2_SlowSpeed.node[156].veinsmobility 	maxSpeed 	7.99290909976
scalar Scenario2_SlowSpeed.node[156].veinsmobility 	totalDistance 	328.68115821928
scalar Scenario2_SlowSpeed.node[156].veinsmobility 	totalCO2Emission 	72.447356552333
scalar Scenario2_SlowSpeed.node[163].appl 	generatedWSMs 	1
scalar Scenario2_SlowSpeed.node[163].appl 	receivedWSMs 	6
scalar Scenario2_SlowSpeed.node[163].appl 	generatedBSMs 	82
scalar Scenario2_SlowSpeed.node[163].appl 	receivedBSMs 	7374
scalar Scenario2_SlowSpeed.node[163].appl 	generatedWSAs 	0
scalar Scenario2_SlowSpeed.node[163].appl 	receivedWSAs 	0
scalar Scenario2_SlowSpeed.node[163].appl 	delayWSM 	0.000822291268
scalar Scenario2_SlowSpeed.node[163].appl 	Dist_Propa 	210.91245417976
scalar Scenario2_SlowSpeed.node[163].nic.phy80211p 	busyTime 	0.01902887804878
scalar Scenario2_SlowSpeed.node[163].nic.phy80211p 	ncollisions 	40
scalar Scenario2_SlowSpeed.node[163].nic.mac1609_4 	ReceivedUnicastPackets 	0
scalar Scenario2_SlowSpeed.node[163].nic.mac1609_4 	ReceivedBroadcasts 	7380
scalar Scenario2_SlowSpeed.node[163].nic.mac1609_4 	SentPackets 	83
scalar Scenario2_SlowSpeed.node[163].nic.mac1609_4 	SNIRLostPackets 	91
scalar Scenario2_SlowSpeed.node[163].nic.mac1609_4 	RXTXLostPackets 	10
scalar Scenario2_SlowSpeed.node[163].nic.mac1609_4 	TotalLostPackets 	101
scalar Scenario2_SlowSpeed.node[163].nic.mac1609_4 	DroppedPacketsInMac 	0
scalar Scenario2_SlowSpeed.node[163].nic.mac1609_4 	TooLittleTime 	0
scalar Scenario2_SlowSpeed.node[163].nic.mac1609_4 	TimesIntoBackoff 	83
scalar Scenario2_SlowSpeed.node[163].nic.mac1609_4 	SlotsBackoff 	135
scalar Scenario2_SlowSpeed.node[163].nic.mac1609_4 	NumInternalContention 	0
scalar Scenario2_SlowSpeed.node[163].nic.mac1609_4 	totalBusyTime 	0.781547186934
scalar Scenario2_SlowSpeed.node[163].veinsmobility 	startTime 	19
scalar Scenario2_SlowSpeed.node[163].veinsmobility 	totalTime 	41
scalar Scenario2_SlowSpeed.node[163].veinsmobility 	stopTime 	60
scalar Scenario2_SlowSpeed.node[163].veinsmobility 	minSpeed 	2.9961562340673
scalar Scenario2_SlowSpeed.node[163].veinsmobility 	maxSpeed 	7.9797279175348
scalar Scenario2_SlowSpeed.node[163].veinsmobility 	totalDistance 	313.69993082121
scalar Scenario2_SlowSpeed.node[163].veinsmobility 	totalCO2Emission 	68.902201023075
scalar Scenario2_SlowSpeed.node[173].appl 	generatedWSMs 	1
scalar Scenario2_SlowSpeed.node[173].appl 	receivedWSMs 	6
scalar Scenario2_SlowSpeed.node[173].appl 	generatedBSMs 	78
scalar Scenario2_SlowSpeed.node[173].appl 	receivedBSMs 	6794
scalar Scenario2_SlowSpeed.node[173].appl 	generatedWSAs 	0
scalar Scenario2_SlowSpeed.node[173].appl 	receivedWSAs 	0
scalar Scenario2_SlowSpeed.node[173].appl 	delayWSM 	0.000822337226
scalar Scenario2_SlowSpeed.node[173].appl 	Dist_Propa 	223.79878863096
scalar Scenario2_SlowSpeed.node[173].nic.phy80211p 	busyTime 	0.018436102564102
scalar Scenario2_SlowSpeed.node[173].nic.phy80211p 	ncollisions 	36
scalar Scenario2_SlowSpeed.node[173].nic.mac1609_4 	ReceivedUnicastPackets 	0
scalar Scenario2_SlowSpeed.node[173].nic.mac1609_4 	ReceivedBroadcasts 	6800
scalar Scenario2_SlowSpeed.node[173].nic.mac1609_4 	SentPackets 	79
scalar Scenario2_SlowSpeed.node[173].nic.mac1609_4 	SNIRLostPackets 	84
scalar Scenario2_SlowSpeed.node[173].nic.mac1609_4 	RXTXLostPackets 	10
scalar Scenario2_SlowSpeed.node[173].nic.mac1609_4 	TotalLostPackets 	94
scalar Scenario2_SlowSpeed.node[173].nic.mac1609_4 	DroppedPacketsInMac 	0
scalar Scenario2_SlowSpeed.node[173].nic.mac1609_4 	TooLittleTime 	0
scalar Scenario2_SlowSpeed.node[173].nic.mac1609_4 	TimesIntoBackoff 	79
scalar Scenario2_SlowSpeed.node[173].nic.mac1609_4 	SlotsBackoff 	132
scalar Scenario2_SlowSpeed.node[173].nic.mac1609_4 	NumInternalContention 	0
scalar Scenario2_SlowSpeed.node[173].nic.mac1609_4 	totalBusyTime 	0.720391191082
scalar Scenario2_SlowSpeed.node[173].veinsmobility 	startTime 	21
scalar Scenario2_SlowSpeed.node[173].veinsmobility 	totalTime 	39
scalar Scenario2_SlowSpeed.node[173].veinsmobility 	stopTime 	60
scalar Scenario2_SlowSpeed.node[173].veinsmobility 	minSpeed 	3.5498721347115
scalar Scenario2_SlowSpeed.node[173].veinsmobility 	maxSpeed 	7.9987463180046
scalar Scenario2_SlowSpeed.node[173].veinsmobility 	totalDistance 	299.6724920594
scalar Scenario2_SlowSpeed.node[173].veinsmobility 	totalCO2Emission 	65.29085281091
scalar Scenario2_SlowSpeed.node[185].appl 	generatedWSMs 	1
scalar Scenario2_SlowSpeed.node[185].appl 	receivedWSMs 	6
scalar Scenario2_SlowSpeed.node[185].appl 	generatedBSMs 	74
scalar Scenario2_SlowSpeed.node[185].appl 	receivedBSMs 	6132
scalar Scenario2_SlowSpeed.node[185].appl 	generatedWSAs 	0
scalar Scenario2_SlowSpeed.node[185].appl 	receivedWSAs 	0
scalar Scenario2_SlowSpeed.node[185].appl 	delayWSM 	0.000822384679
scalar Scenario2_SlowSpeed.node[185].appl 	Dist_Propa 	307.16658059338
scalar Scenario2_SlowSpeed.node[185].nic.phy80211p 	busyTime 	0.017541837837837
scalar Scenario2_SlowSpeed.node[185].nic.phy80211p 	ncollisions 	33
scalar Scenario2_SlowSpeed.node[185].nic.mac1609_4 	ReceivedUnicastPackets 	0
scalar Scenario2_SlowSpeed.node[185].nic.mac1609_4 	ReceivedBroadcasts 	6138
scalar Scenario2_SlowSpeed.node[185].nic.mac1609_4 	SentPackets 	75
scalar Scenario2_SlowSpeed.node[185].nic.mac1609_4 	SNIRLostPackets 	77
scalar Scenario2_SlowSpeed.node[185].nic.mac1609_4 	RXTXLostPackets 	10
scalar Scenario2_SlowSpeed.node[185].nic.mac1609_4 	TotalLostPackets 	87
scalar Scenario2_SlowSpeed.node[185].nic.mac1609_4 	DroppedPacketsInMac 	0
scalar Scenario2_SlowSpeed.node[185].nic.mac1609_4 	TooLittleTime 	0
scalar Scenario2_SlowSpeed.node[185].nic.mac1609_4 	TimesIntoBackoff 	75
scalar Scenario2_SlowSpeed.node[185].nic.mac1609_4 	SlotsBackoff 	99
scalar Scenario2_SlowSpeed.node[185].nic.mac1609_4 	NumInternalContention 	0
scalar Scenario2_SlowSpeed.node[185].nic.mac1609_4 	totalBusyTime 	0.650811192862
scalar Scenario2_SlowSpeed.node[185].veinsmobility 	startTime 	23
scalar Scenario2_SlowSpeed.node[185].veinsmobility 	totalTime 	37
scalar Scenario2_SlowSpeed.node[185].veinsmobility 	stopTime 	60
scalar Scenario2_SlowSpeed.node[185].veinsmobility 	minSpeed 	4.0273957115979
scalar Scenario2_SlowSpeed.node[185].veinsmobility 	maxSpeed 	7.9996747244173
scalar Scenario2_SlowSpeed.node[185].veinsmobility 	totalDistance 	284.88252866724
scalar Scenario2_SlowSpeed.node[185].veinsmobility 	totalCO2Emission 	61.759848786299
