file 1767845 1518237876                                         
version 2
run WithoutChSw-WSA-slotted-0-20180208-17:36:50-24834
attr configname WithoutChSw-WSA-slotted
attr datetime 20180208-17:36:50
attr experiment WithoutChSw-WSA-slotted
attr inifile omnetpp.ini
attr iterationvars $0=0.1s
attr iterationvarsf 0.1s-
attr measurement $0=0.1s
attr network Scenario2_SlowSpeed
attr processid 24834
attr repetition 0
attr replication #0
attr resultdir results
attr runnumber 0
attr seedset 0
param **.coreDebug false
param **.debug false
param *.**.nic.mac1609_4.bitrate 6Mbps
param *.**.nic.mac1609_4.txPower 20mW
param *.**.nic.mac1609_4.useServiceChannel false
param *.**.nic.phy80211p.analogueModels "xmldoc(\"config.xml\")"
param *.**.nic.phy80211p.antenna "xmldoc(\"antenna.xml\", \"/root/Antenna[@id='monopole']\")"
param *.**.nic.phy80211p.collectCollisionStatistics true
param *.**.nic.phy80211p.decider "xmldoc(\"config.xml\")"
param *.**.nic.phy80211p.sensitivity -89dBm
param *.**.nic.phy80211p.thermalNoise -110dBm
param *.**.nic.phy80211p.usePropagationDelay true
param *.**.nic.phy80211p.useThermalNoise true
param *.annotations.draw true
param *.connectionManager.drawMaxIntfDist false
param *.connectionManager.maxInterfDist 2600m
param *.connectionManager.sendDirect true
param *.manager.autoShutdown true
param *.manager.host "\"localhost\""
param *.manager.launchConfig "xmldoc(\"mycross.launchd.xml\")"
param *.manager.port 9999
param *.manager.updateInterval 1s
param *.node[*].appl.Slotted1Enabled true
param *.node[*].appl.Slotted_Ns 5
param *.node[*].appl.Slotted_R 500
param *.node[*].appl.Slotted_tau 0.005
param *.node[*].appl.beaconInterval 1s
param *.node[*].appl.dataOnSch false
param *.node[*].appl.headerLength "80 bit"
param *.node[*].appl.sendBeacons true
param *.node[*].appl.sendWSA true
param *.node[*].applType "\"myWaveAppLayer\""
param *.node[*].veinsmobility.x 0
param *.node[*].veinsmobility.y 0
param *.node[*].veinsmobility.z 1.895
param *.node[*].veinsmobilityType.debug true
param *.node[20].appl.Accident_start 30
param *.node[40].veinsmobility.accidentCount 1
param *.node[40].veinsmobility.accidentDuration 40s
param *.node[40].veinsmobility.accidentStart 30s
param *.obstacles.debug false
param *.playgroundSizeX 2500m
param *.playgroundSizeY 2500m
param *.playgroundSizeZ 50m
param *.rsu[*].appl.beaconInterval 0.1s
param *.rsu[*].appl.beaconUserPriority 7
param *.rsu[*].appl.dataOnSch false
param *.rsu[*].appl.dataUserPriority 5
param *.rsu[*].appl.headerLength "80 bit"
param *.rsu[*].appl.sendBeacons false
param *.rsu[*].applType "\"TraCIDemoRSU11p\""
param *.rsu[0].mobility.x 500
param *.rsu[0].mobility.y 500
param *.rsu[0].mobility.z 3

vector 2  Scenario2_SlowSpeed.node[0].veinsmobility  posx  ETV
vector 3  Scenario2_SlowSpeed.node[0].veinsmobility  posy  ETV
vector 9  Scenario2_SlowSpeed.node[1].veinsmobility  posx  ETV
vector 10  Scenario2_SlowSpeed.node[1].veinsmobility  posy  ETV
vector 16  Scenario2_SlowSpeed.node[2].veinsmobility  posx  ETV
vector 17  Scenario2_SlowSpeed.node[2].veinsmobility  posy  ETV
vector 23  Scenario2_SlowSpeed.node[3].veinsmobility  posx  ETV
vector 24  Scenario2_SlowSpeed.node[3].veinsmobility  posy  ETV
vector 30  Scenario2_SlowSpeed.node[4].veinsmobility  posx  ETV
vector 31  Scenario2_SlowSpeed.node[4].veinsmobility  posy  ETV
vector 37  Scenario2_SlowSpeed.node[5].veinsmobility  posx  ETV
vector 38  Scenario2_SlowSpeed.node[5].veinsmobility  posy  ETV
vector 44  Scenario2_SlowSpeed.node[6].veinsmobility  posx  ETV
vector 45  Scenario2_SlowSpeed.node[6].veinsmobility  posy  ETV
vector 51  Scenario2_SlowSpeed.node[7].veinsmobility  posx  ETV
vector 52  Scenario2_SlowSpeed.node[7].veinsmobility  posy  ETV
vector 58  Scenario2_SlowSpeed.node[8].veinsmobility  posx  ETV
vector 59  Scenario2_SlowSpeed.node[8].veinsmobility  posy  ETV
vector 65  Scenario2_SlowSpeed.node[9].veinsmobility  posx  ETV
vector 66  Scenario2_SlowSpeed.node[9].veinsmobility  posy  ETV
vector 72  Scenario2_SlowSpeed.node[10].veinsmobility  posx  ETV
vector 73  Scenario2_SlowSpeed.node[10].veinsmobility  posy  ETV
vector 79  Scenario2_SlowSpeed.node[11].veinsmobility  posx  ETV
vector 80  Scenario2_SlowSpeed.node[11].veinsmobility  posy  ETV
vector 86  Scenario2_SlowSpeed.node[12].veinsmobility  posx  ETV
vector 87  Scenario2_SlowSpeed.node[12].veinsmobility  posy  ETV
vector 93  Scenario2_SlowSpeed.node[13].veinsmobility  posx  ETV
vector 94  Scenario2_SlowSpeed.node[13].veinsmobility  posy  ETV
vector 100  Scenario2_SlowSpeed.node[14].veinsmobility  posx  ETV
vector 101  Scenario2_SlowSpeed.node[14].veinsmobility  posy  ETV
vector 107  Scenario2_SlowSpeed.node[15].veinsmobility  posx  ETV
vector 108  Scenario2_SlowSpeed.node[15].veinsmobility  posy  ETV
vector 114  Scenario2_SlowSpeed.node[16].veinsmobility  posx  ETV
vector 115  Scenario2_SlowSpeed.node[16].veinsmobility  posy  ETV
vector 121  Scenario2_SlowSpeed.node[17].veinsmobility  posx  ETV
vector 122  Scenario2_SlowSpeed.node[17].veinsmobility  posy  ETV
vector 128  Scenario2_SlowSpeed.node[18].veinsmobility  posx  ETV
vector 129  Scenario2_SlowSpeed.node[18].veinsmobility  posy  ETV
vector 135  Scenario2_SlowSpeed.node[19].veinsmobility  posx  ETV
vector 136  Scenario2_SlowSpeed.node[19].veinsmobility  posy  ETV
vector 142  Scenario2_SlowSpeed.node[20].veinsmobility  posx  ETV
vector 143  Scenario2_SlowSpeed.node[20].veinsmobility  posy  ETV
vector 149  Scenario2_SlowSpeed.node[21].veinsmobility  posx  ETV
vector 150  Scenario2_SlowSpeed.node[21].veinsmobility  posy  ETV
vector 156  Scenario2_SlowSpeed.node[22].veinsmobility  posx  ETV
vector 157  Scenario2_SlowSpeed.node[22].veinsmobility  posy  ETV
vector 163  Scenario2_SlowSpeed.node[23].veinsmobility  posx  ETV
vector 164  Scenario2_SlowSpeed.node[23].veinsmobility  posy  ETV
vector 170  Scenario2_SlowSpeed.node[24].veinsmobility  posx  ETV
vector 171  Scenario2_SlowSpeed.node[24].veinsmobility  posy  ETV
vector 177  Scenario2_SlowSpeed.node[25].veinsmobility  posx  ETV
vector 178  Scenario2_SlowSpeed.node[25].veinsmobility  posy  ETV
vector 184  Scenario2_SlowSpeed.node[26].veinsmobility  posx  ETV
vector 185  Scenario2_SlowSpeed.node[26].veinsmobility  posy  ETV
vector 191  Scenario2_SlowSpeed.node[27].veinsmobility  posx  ETV
vector 192  Scenario2_SlowSpeed.node[27].veinsmobility  posy  ETV
vector 198  Scenario2_SlowSpeed.node[28].veinsmobility  posx  ETV
vector 199  Scenario2_SlowSpeed.node[28].veinsmobility  posy  ETV
vector 205  Scenario2_SlowSpeed.node[29].veinsmobility  posx  ETV
vector 206  Scenario2_SlowSpeed.node[29].veinsmobility  posy  ETV
vector 212  Scenario2_SlowSpeed.node[30].veinsmobility  posx  ETV
vector 213  Scenario2_SlowSpeed.node[30].veinsmobility  posy  ETV
vector 219  Scenario2_SlowSpeed.node[31].veinsmobility  posx  ETV
vector 220  Scenario2_SlowSpeed.node[31].veinsmobility  posy  ETV
vector 226  Scenario2_SlowSpeed.node[32].veinsmobility  posx  ETV
vector 227  Scenario2_SlowSpeed.node[32].veinsmobility  posy  ETV
vector 233  Scenario2_SlowSpeed.node[33].veinsmobility  posx  ETV
vector 234  Scenario2_SlowSpeed.node[33].veinsmobility  posy  ETV
vector 240  Scenario2_SlowSpeed.node[34].veinsmobility  posx  ETV
vector 241  Scenario2_SlowSpeed.node[34].veinsmobility  posy  ETV
vector 247  Scenario2_SlowSpeed.node[35].veinsmobility  posx  ETV
vector 248  Scenario2_SlowSpeed.node[35].veinsmobility  posy  ETV
vector 254  Scenario2_SlowSpeed.node[36].veinsmobility  posx  ETV
vector 255  Scenario2_SlowSpeed.node[36].veinsmobility  posy  ETV
vector 261  Scenario2_SlowSpeed.node[37].veinsmobility  posx  ETV
vector 262  Scenario2_SlowSpeed.node[37].veinsmobility  posy  ETV
vector 268  Scenario2_SlowSpeed.node[38].veinsmobility  posx  ETV
vector 269  Scenario2_SlowSpeed.node[38].veinsmobility  posy  ETV
vector 275  Scenario2_SlowSpeed.node[39].veinsmobility  posx  ETV
vector 276  Scenario2_SlowSpeed.node[39].veinsmobility  posy  ETV
vector 282  Scenario2_SlowSpeed.node[40].veinsmobility  posx  ETV
vector 283  Scenario2_SlowSpeed.node[40].veinsmobility  posy  ETV
vector 289  Scenario2_SlowSpeed.node[41].veinsmobility  posx  ETV
vector 290  Scenario2_SlowSpeed.node[41].veinsmobility  posy  ETV
vector 296  Scenario2_SlowSpeed.node[42].veinsmobility  posx  ETV
vector 297  Scenario2_SlowSpeed.node[42].veinsmobility  posy  ETV
vector 303  Scenario2_SlowSpeed.node[43].veinsmobility  posx  ETV
vector 304  Scenario2_SlowSpeed.node[43].veinsmobility  posy  ETV
vector 310  Scenario2_SlowSpeed.node[44].veinsmobility  posx  ETV
vector 311  Scenario2_SlowSpeed.node[44].veinsmobility  posy  ETV
vector 317  Scenario2_SlowSpeed.node[45].veinsmobility  posx  ETV
vector 318  Scenario2_SlowSpeed.node[45].veinsmobility  posy  ETV
vector 324  Scenario2_SlowSpeed.node[46].veinsmobility  posx  ETV
vector 325  Scenario2_SlowSpeed.node[46].veinsmobility  posy  ETV
vector 331  Scenario2_SlowSpeed.node[47].veinsmobility  posx  ETV
vector 332  Scenario2_SlowSpeed.node[47].veinsmobility  posy  ETV
vector 338  Scenario2_SlowSpeed.node[48].veinsmobility  posx  ETV
vector 339  Scenario2_SlowSpeed.node[48].veinsmobility  posy  ETV
vector 345  Scenario2_SlowSpeed.node[49].veinsmobility  posx  ETV
vector 346  Scenario2_SlowSpeed.node[49].veinsmobility  posy  ETV
vector 352  Scenario2_SlowSpeed.node[50].veinsmobility  posx  ETV
vector 353  Scenario2_SlowSpeed.node[50].veinsmobility  posy  ETV
vector 359  Scenario2_SlowSpeed.node[51].veinsmobility  posx  ETV
vector 360  Scenario2_SlowSpeed.node[51].veinsmobility  posy  ETV
vector 366  Scenario2_SlowSpeed.node[52].veinsmobility  posx  ETV
vector 367  Scenario2_SlowSpeed.node[52].veinsmobility  posy  ETV
vector 373  Scenario2_SlowSpeed.node[53].veinsmobility  posx  ETV
vector 374  Scenario2_SlowSpeed.node[53].veinsmobility  posy  ETV
vector 380  Scenario2_SlowSpeed.node[54].veinsmobility  posx  ETV
vector 381  Scenario2_SlowSpeed.node[54].veinsmobility  posy  ETV
vector 387  Scenario2_SlowSpeed.node[55].veinsmobility  posx  ETV
vector 388  Scenario2_SlowSpeed.node[55].veinsmobility  posy  ETV
vector 394  Scenario2_SlowSpeed.node[56].veinsmobility  posx  ETV
vector 395  Scenario2_SlowSpeed.node[56].veinsmobility  posy  ETV
vector 401  Scenario2_SlowSpeed.node[57].veinsmobility  posx  ETV
vector 402  Scenario2_SlowSpeed.node[57].veinsmobility  posy  ETV
vector 408  Scenario2_SlowSpeed.node[58].veinsmobility  posx  ETV
vector 409  Scenario2_SlowSpeed.node[58].veinsmobility  posy  ETV
vector 415  Scenario2_SlowSpeed.node[59].veinsmobility  posx  ETV
vector 416  Scenario2_SlowSpeed.node[59].veinsmobility  posy  ETV
vector 422  Scenario2_SlowSpeed.node[60].veinsmobility  posx  ETV
vector 423  Scenario2_SlowSpeed.node[60].veinsmobility  posy  ETV
vector 429  Scenario2_SlowSpeed.node[61].veinsmobility  posx  ETV
vector 430  Scenario2_SlowSpeed.node[61].veinsmobility  posy  ETV
vector 436  Scenario2_SlowSpeed.node[62].veinsmobility  posx  ETV
vector 437  Scenario2_SlowSpeed.node[62].veinsmobility  posy  ETV
vector 443  Scenario2_SlowSpeed.node[63].veinsmobility  posx  ETV
vector 444  Scenario2_SlowSpeed.node[63].veinsmobility  posy  ETV
vector 450  Scenario2_SlowSpeed.node[64].veinsmobility  posx  ETV
vector 451  Scenario2_SlowSpeed.node[64].veinsmobility  posy  ETV
vector 457  Scenario2_SlowSpeed.node[65].veinsmobility  posx  ETV
vector 458  Scenario2_SlowSpeed.node[65].veinsmobility  posy  ETV
vector 464  Scenario2_SlowSpeed.node[66].veinsmobility  posx  ETV
vector 465  Scenario2_SlowSpeed.node[66].veinsmobility  posy  ETV
vector 471  Scenario2_SlowSpeed.node[67].veinsmobility  posx  ETV
vector 472  Scenario2_SlowSpeed.node[67].veinsmobility  posy  ETV
vector 478  Scenario2_SlowSpeed.node[68].veinsmobility  posx  ETV
vector 479  Scenario2_SlowSpeed.node[68].veinsmobility  posy  ETV
vector 485  Scenario2_SlowSpeed.node[69].veinsmobility  posx  ETV
vector 486  Scenario2_SlowSpeed.node[69].veinsmobility  posy  ETV
vector 492  Scenario2_SlowSpeed.node[70].veinsmobility  posx  ETV
vector 493  Scenario2_SlowSpeed.node[70].veinsmobility  posy  ETV
vector 499  Scenario2_SlowSpeed.node[71].veinsmobility  posx  ETV
vector 500  Scenario2_SlowSpeed.node[71].veinsmobility  posy  ETV
vector 4  Scenario2_SlowSpeed.node[0].veinsmobility  speed  ETV
vector 11  Scenario2_SlowSpeed.node[1].veinsmobility  speed  ETV
vector 18  Scenario2_SlowSpeed.node[2].veinsmobility  speed  ETV
vector 25  Scenario2_SlowSpeed.node[3].veinsmobility  speed  ETV
vector 32  Scenario2_SlowSpeed.node[4].veinsmobility  speed  ETV
vector 39  Scenario2_SlowSpeed.node[5].veinsmobility  speed  ETV
vector 46  Scenario2_SlowSpeed.node[6].veinsmobility  speed  ETV
vector 53  Scenario2_SlowSpeed.node[7].veinsmobility  speed  ETV
vector 60  Scenario2_SlowSpeed.node[8].veinsmobility  speed  ETV
vector 67  Scenario2_SlowSpeed.node[9].veinsmobility  speed  ETV
vector 74  Scenario2_SlowSpeed.node[10].veinsmobility  speed  ETV
vector 81  Scenario2_SlowSpeed.node[11].veinsmobility  speed  ETV
vector 88  Scenario2_SlowSpeed.node[12].veinsmobility  speed  ETV
vector 95  Scenario2_SlowSpeed.node[13].veinsmobility  speed  ETV
vector 102  Scenario2_SlowSpeed.node[14].veinsmobility  speed  ETV
vector 109  Scenario2_SlowSpeed.node[15].veinsmobility  speed  ETV
vector 116  Scenario2_SlowSpeed.node[16].veinsmobility  speed  ETV
vector 123  Scenario2_SlowSpeed.node[17].veinsmobility  speed  ETV
vector 130  Scenario2_SlowSpeed.node[18].veinsmobility  speed  ETV
vector 137  Scenario2_SlowSpeed.node[19].veinsmobility  speed  ETV
vector 144  Scenario2_SlowSpeed.node[20].veinsmobility  speed  ETV
vector 151  Scenario2_SlowSpeed.node[21].veinsmobility  speed  ETV
vector 158  Scenario2_SlowSpeed.node[22].veinsmobility  speed  ETV
vector 165  Scenario2_SlowSpeed.node[23].veinsmobility  speed  ETV
vector 172  Scenario2_SlowSpeed.node[24].veinsmobility  speed  ETV
vector 179  Scenario2_SlowSpeed.node[25].veinsmobility  speed  ETV
vector 186  Scenario2_SlowSpeed.node[26].veinsmobility  speed  ETV
vector 193  Scenario2_SlowSpeed.node[27].veinsmobility  speed  ETV
vector 200  Scenario2_SlowSpeed.node[28].veinsmobility  speed  ETV
vector 207  Scenario2_SlowSpeed.node[29].veinsmobility  speed  ETV
vector 214  Scenario2_SlowSpeed.node[30].veinsmobility  speed  ETV
vector 221  Scenario2_SlowSpeed.node[31].veinsmobility  speed  ETV
vector 228  Scenario2_SlowSpeed.node[32].veinsmobility  speed  ETV
vector 235  Scenario2_SlowSpeed.node[33].veinsmobility  speed  ETV
vector 242  Scenario2_SlowSpeed.node[34].veinsmobility  speed  ETV
vector 249  Scenario2_SlowSpeed.node[35].veinsmobility  speed  ETV
vector 256  Scenario2_SlowSpeed.node[36].veinsmobility  speed  ETV
vector 263  Scenario2_SlowSpeed.node[37].veinsmobility  speed  ETV
vector 270  Scenario2_SlowSpeed.node[38].veinsmobility  speed  ETV
vector 277  Scenario2_SlowSpeed.node[39].veinsmobility  speed  ETV
vector 284  Scenario2_SlowSpeed.node[40].veinsmobility  speed  ETV
vector 291  Scenario2_SlowSpeed.node[41].veinsmobility  speed  ETV
vector 298  Scenario2_SlowSpeed.node[42].veinsmobility  speed  ETV
vector 305  Scenario2_SlowSpeed.node[43].veinsmobility  speed  ETV
vector 312  Scenario2_SlowSpeed.node[44].veinsmobility  speed  ETV
vector 319  Scenario2_SlowSpeed.node[45].veinsmobility  speed  ETV
vector 326  Scenario2_SlowSpeed.node[46].veinsmobility  speed  ETV
vector 506  Scenario2_SlowSpeed.node[72].veinsmobility  posx  ETV
vector 507  Scenario2_SlowSpeed.node[72].veinsmobility  posy  ETV
vector 513  Scenario2_SlowSpeed.node[73].veinsmobility  posx  ETV
vector 514  Scenario2_SlowSpeed.node[73].veinsmobility  posy  ETV
vector 520  Scenario2_SlowSpeed.node[74].veinsmobility  posx  ETV
vector 521  Scenario2_SlowSpeed.node[74].veinsmobility  posy  ETV
vector 527  Scenario2_SlowSpeed.node[75].veinsmobility  posx  ETV
vector 528  Scenario2_SlowSpeed.node[75].veinsmobility  posy  ETV
vector 534  Scenario2_SlowSpeed.node[76].veinsmobility  posx  ETV
vector 535  Scenario2_SlowSpeed.node[76].veinsmobility  posy  ETV
vector 541  Scenario2_SlowSpeed.node[77].veinsmobility  posx  ETV
vector 542  Scenario2_SlowSpeed.node[77].veinsmobility  posy  ETV
vector 548  Scenario2_SlowSpeed.node[78].veinsmobility  posx  ETV
vector 549  Scenario2_SlowSpeed.node[78].veinsmobility  posy  ETV
vector 555  Scenario2_SlowSpeed.node[79].veinsmobility  posx  ETV
vector 556  Scenario2_SlowSpeed.node[79].veinsmobility  posy  ETV
vector 5  Scenario2_SlowSpeed.node[0].veinsmobility  acceleration  ETV
vector 6  Scenario2_SlowSpeed.node[0].veinsmobility  co2emission  ETV
vector 12  Scenario2_SlowSpeed.node[1].veinsmobility  acceleration  ETV
vector 13  Scenario2_SlowSpeed.node[1].veinsmobility  co2emission  ETV
vector 19  Scenario2_SlowSpeed.node[2].veinsmobility  acceleration  ETV
vector 20  Scenario2_SlowSpeed.node[2].veinsmobility  co2emission  ETV
vector 26  Scenario2_SlowSpeed.node[3].veinsmobility  acceleration  ETV
vector 27  Scenario2_SlowSpeed.node[3].veinsmobility  co2emission  ETV
vector 33  Scenario2_SlowSpeed.node[4].veinsmobility  acceleration  ETV
vector 34  Scenario2_SlowSpeed.node[4].veinsmobility  co2emission  ETV
vector 40  Scenario2_SlowSpeed.node[5].veinsmobility  acceleration  ETV
vector 41  Scenario2_SlowSpeed.node[5].veinsmobility  co2emission  ETV
vector 47  Scenario2_SlowSpeed.node[6].veinsmobility  acceleration  ETV
vector 48  Scenario2_SlowSpeed.node[6].veinsmobility  co2emission  ETV
vector 54  Scenario2_SlowSpeed.node[7].veinsmobility  acceleration  ETV
vector 55  Scenario2_SlowSpeed.node[7].veinsmobility  co2emission  ETV
vector 61  Scenario2_SlowSpeed.node[8].veinsmobility  acceleration  ETV
vector 62  Scenario2_SlowSpeed.node[8].veinsmobility  co2emission  ETV
vector 68  Scenario2_SlowSpeed.node[9].veinsmobility  acceleration  ETV
vector 69  Scenario2_SlowSpeed.node[9].veinsmobility  co2emission  ETV
vector 75  Scenario2_SlowSpeed.node[10].veinsmobility  acceleration  ETV
vector 76  Scenario2_SlowSpeed.node[10].veinsmobility  co2emission  ETV
vector 82  Scenario2_SlowSpeed.node[11].veinsmobility  acceleration  ETV
vector 83  Scenario2_SlowSpeed.node[11].veinsmobility  co2emission  ETV
vector 89  Scenario2_SlowSpeed.node[12].veinsmobility  acceleration  ETV
vector 90  Scenario2_SlowSpeed.node[12].veinsmobility  co2emission  ETV
vector 96  Scenario2_SlowSpeed.node[13].veinsmobility  acceleration  ETV
vector 97  Scenario2_SlowSpeed.node[13].veinsmobility  co2emission  ETV
vector 103  Scenario2_SlowSpeed.node[14].veinsmobility  acceleration  ETV
vector 104  Scenario2_SlowSpeed.node[14].veinsmobility  co2emission  ETV
vector 110  Scenario2_SlowSpeed.node[15].veinsmobility  acceleration  ETV
vector 111  Scenario2_SlowSpeed.node[15].veinsmobility  co2emission  ETV
vector 117  Scenario2_SlowSpeed.node[16].veinsmobility  acceleration  ETV
vector 118  Scenario2_SlowSpeed.node[16].veinsmobility  co2emission  ETV
vector 124  Scenario2_SlowSpeed.node[17].veinsmobility  acceleration  ETV
vector 125  Scenario2_SlowSpeed.node[17].veinsmobility  co2emission  ETV
vector 131  Scenario2_SlowSpeed.node[18].veinsmobility  acceleration  ETV
vector 132  Scenario2_SlowSpeed.node[18].veinsmobility  co2emission  ETV
vector 138  Scenario2_SlowSpeed.node[19].veinsmobility  acceleration  ETV
vector 139  Scenario2_SlowSpeed.node[19].veinsmobility  co2emission  ETV
vector 145  Scenario2_SlowSpeed.node[20].veinsmobility  acceleration  ETV
vector 146  Scenario2_SlowSpeed.node[20].veinsmobility  co2emission  ETV
vector 152  Scenario2_SlowSpeed.node[21].veinsmobility  acceleration  ETV
vector 153  Scenario2_SlowSpeed.node[21].veinsmobility  co2emission  ETV
vector 159  Scenario2_SlowSpeed.node[22].veinsmobility  acceleration  ETV
vector 160  Scenario2_SlowSpeed.node[22].veinsmobility  co2emission  ETV
vector 166  Scenario2_SlowSpeed.node[23].veinsmobility  acceleration  ETV
vector 167  Scenario2_SlowSpeed.node[23].veinsmobility  co2emission  ETV
vector 173  Scenario2_SlowSpeed.node[24].veinsmobility  acceleration  ETV
vector 174  Scenario2_SlowSpeed.node[24].veinsmobility  co2emission  ETV
vector 180  Scenario2_SlowSpeed.node[25].veinsmobility  acceleration  ETV
vector 181  Scenario2_SlowSpeed.node[25].veinsmobility  co2emission  ETV
vector 187  Scenario2_SlowSpeed.node[26].veinsmobility  acceleration  ETV
vector 188  Scenario2_SlowSpeed.node[26].veinsmobility  co2emission  ETV
vector 194  Scenario2_SlowSpeed.node[27].veinsmobility  acceleration  ETV
vector 195  Scenario2_SlowSpeed.node[27].veinsmobility  co2emission  ETV
vector 201  Scenario2_SlowSpeed.node[28].veinsmobility  acceleration  ETV
vector 202  Scenario2_SlowSpeed.node[28].veinsmobility  co2emission  ETV
vector 208  Scenario2_SlowSpeed.node[29].veinsmobility  acceleration  ETV
vector 209  Scenario2_SlowSpeed.node[29].veinsmobility  co2emission  ETV
vector 215  Scenario2_SlowSpeed.node[30].veinsmobility  acceleration  ETV
vector 216  Scenario2_SlowSpeed.node[30].veinsmobility  co2emission  ETV
vector 222  Scenario2_SlowSpeed.node[31].veinsmobility  acceleration  ETV
vector 223  Scenario2_SlowSpeed.node[31].veinsmobility  co2emission  ETV
vector 229  Scenario2_SlowSpeed.node[32].veinsmobility  acceleration  ETV
vector 230  Scenario2_SlowSpeed.node[32].veinsmobility  co2emission  ETV
vector 236  Scenario2_SlowSpeed.node[33].veinsmobility  acceleration  ETV
vector 237  Scenario2_SlowSpeed.node[33].veinsmobility  co2emission  ETV
vector 243  Scenario2_SlowSpeed.node[34].veinsmobility  acceleration  ETV
vector 244  Scenario2_SlowSpeed.node[34].veinsmobility  co2emission  ETV
vector 250  Scenario2_SlowSpeed.node[35].veinsmobility  acceleration  ETV
vector 251  Scenario2_SlowSpeed.node[35].veinsmobility  co2emission  ETV
vector 257  Scenario2_SlowSpeed.node[36].veinsmobility  acceleration  ETV
vector 258  Scenario2_SlowSpeed.node[36].veinsmobility  co2emission  ETV
vector 264  Scenario2_SlowSpeed.node[37].veinsmobility  acceleration  ETV
vector 265  Scenario2_SlowSpeed.node[37].veinsmobility  co2emission  ETV
vector 271  Scenario2_SlowSpeed.node[38].veinsmobility  acceleration  ETV
vector 272  Scenario2_SlowSpeed.node[38].veinsmobility  co2emission  ETV
vector 278  Scenario2_SlowSpeed.node[39].veinsmobility  acceleration  ETV
vector 279  Scenario2_SlowSpeed.node[39].veinsmobility  co2emission  ETV
vector 285  Scenario2_SlowSpeed.node[40].veinsmobility  acceleration  ETV
vector 286  Scenario2_SlowSpeed.node[40].veinsmobility  co2emission  ETV
vector 292  Scenario2_SlowSpeed.node[41].veinsmobility  acceleration  ETV
vector 293  Scenario2_SlowSpeed.node[41].veinsmobility  co2emission  ETV
vector 299  Scenario2_SlowSpeed.node[42].veinsmobility  acceleration  ETV
vector 300  Scenario2_SlowSpeed.node[42].veinsmobility  co2emission  ETV
vector 306  Scenario2_SlowSpeed.node[43].veinsmobility  acceleration  ETV
vector 307  Scenario2_SlowSpeed.node[43].veinsmobility  co2emission  ETV
vector 313  Scenario2_SlowSpeed.node[44].veinsmobility  acceleration  ETV
vector 314  Scenario2_SlowSpeed.node[44].veinsmobility  co2emission  ETV
vector 320  Scenario2_SlowSpeed.node[45].veinsmobility  acceleration  ETV
vector 321  Scenario2_SlowSpeed.node[45].veinsmobility  co2emission  ETV
vector 327  Scenario2_SlowSpeed.node[46].veinsmobility  acceleration  ETV
vector 328  Scenario2_SlowSpeed.node[46].veinsmobility  co2emission  ETV
vector 333  Scenario2_SlowSpeed.node[47].veinsmobility  speed  ETV
vector 340  Scenario2_SlowSpeed.node[48].veinsmobility  speed  ETV
vector 347  Scenario2_SlowSpeed.node[49].veinsmobility  speed  ETV
vector 354  Scenario2_SlowSpeed.node[50].veinsmobility  speed  ETV
vector 361  Scenario2_SlowSpeed.node[51].veinsmobility  speed  ETV
vector 368  Scenario2_SlowSpeed.node[52].veinsmobility  speed  ETV
vector 375  Scenario2_SlowSpeed.node[53].veinsmobility  speed  ETV
vector 382  Scenario2_SlowSpeed.node[54].veinsmobility  speed  ETV
vector 389  Scenario2_SlowSpeed.node[55].veinsmobility  speed  ETV
vector 396  Scenario2_SlowSpeed.node[56].veinsmobility  speed  ETV
vector 403  Scenario2_SlowSpeed.node[57].veinsmobility  speed  ETV
vector 410  Scenario2_SlowSpeed.node[58].veinsmobility  speed  ETV
vector 417  Scenario2_SlowSpeed.node[59].veinsmobility  speed  ETV
vector 424  Scenario2_SlowSpeed.node[60].veinsmobility  speed  ETV
vector 431  Scenario2_SlowSpeed.node[61].veinsmobility  speed  ETV
vector 438  Scenario2_SlowSpeed.node[62].veinsmobility  speed  ETV
vector 445  Scenario2_SlowSpeed.node[63].veinsmobility  speed  ETV
vector 452  Scenario2_SlowSpeed.node[64].veinsmobility  speed  ETV
vector 459  Scenario2_SlowSpeed.node[65].veinsmobility  speed  ETV
vector 466  Scenario2_SlowSpeed.node[66].veinsmobility  speed  ETV
vector 473  Scenario2_SlowSpeed.node[67].veinsmobility  speed  ETV
vector 480  Scenario2_SlowSpeed.node[68].veinsmobility  speed  ETV
vector 487  Scenario2_SlowSpeed.node[69].veinsmobility  speed  ETV
vector 494  Scenario2_SlowSpeed.node[70].veinsmobility  speed  ETV
vector 501  Scenario2_SlowSpeed.node[71].veinsmobility  speed  ETV
vector 562  Scenario2_SlowSpeed.node[80].veinsmobility  posx  ETV
vector 563  Scenario2_SlowSpeed.node[80].veinsmobility  posy  ETV
vector 569  Scenario2_SlowSpeed.node[81].veinsmobility  posx  ETV
vector 570  Scenario2_SlowSpeed.node[81].veinsmobility  posy  ETV
vector 576  Scenario2_SlowSpeed.node[82].veinsmobility  posx  ETV
vector 577  Scenario2_SlowSpeed.node[82].veinsmobility  posy  ETV
vector 583  Scenario2_SlowSpeed.node[83].veinsmobility  posx  ETV
vector 584  Scenario2_SlowSpeed.node[83].veinsmobility  posy  ETV
vector 590  Scenario2_SlowSpeed.node[84].veinsmobility  posx  ETV
vector 591  Scenario2_SlowSpeed.node[84].veinsmobility  posy  ETV
vector 597  Scenario2_SlowSpeed.node[85].veinsmobility  posx  ETV
vector 598  Scenario2_SlowSpeed.node[85].veinsmobility  posy  ETV
vector 334  Scenario2_SlowSpeed.node[47].veinsmobility  acceleration  ETV
vector 335  Scenario2_SlowSpeed.node[47].veinsmobility  co2emission  ETV
vector 341  Scenario2_SlowSpeed.node[48].veinsmobility  acceleration  ETV
vector 342  Scenario2_SlowSpeed.node[48].veinsmobility  co2emission  ETV
vector 348  Scenario2_SlowSpeed.node[49].veinsmobility  acceleration  ETV
vector 349  Scenario2_SlowSpeed.node[49].veinsmobility  co2emission  ETV
vector 355  Scenario2_SlowSpeed.node[50].veinsmobility  acceleration  ETV
vector 356  Scenario2_SlowSpeed.node[50].veinsmobility  co2emission  ETV
vector 362  Scenario2_SlowSpeed.node[51].veinsmobility  acceleration  ETV
vector 363  Scenario2_SlowSpeed.node[51].veinsmobility  co2emission  ETV
vector 369  Scenario2_SlowSpeed.node[52].veinsmobility  acceleration  ETV
vector 370  Scenario2_SlowSpeed.node[52].veinsmobility  co2emission  ETV
vector 376  Scenario2_SlowSpeed.node[53].veinsmobility  acceleration  ETV
vector 377  Scenario2_SlowSpeed.node[53].veinsmobility  co2emission  ETV
vector 383  Scenario2_SlowSpeed.node[54].veinsmobility  acceleration  ETV
vector 384  Scenario2_SlowSpeed.node[54].veinsmobility  co2emission  ETV
vector 390  Scenario2_SlowSpeed.node[55].veinsmobility  acceleration  ETV
vector 391  Scenario2_SlowSpeed.node[55].veinsmobility  co2emission  ETV
vector 397  Scenario2_SlowSpeed.node[56].veinsmobility  acceleration  ETV
vector 398  Scenario2_SlowSpeed.node[56].veinsmobility  co2emission  ETV
vector 404  Scenario2_SlowSpeed.node[57].veinsmobility  acceleration  ETV
vector 405  Scenario2_SlowSpeed.node[57].veinsmobility  co2emission  ETV
vector 411  Scenario2_SlowSpeed.node[58].veinsmobility  acceleration  ETV
vector 412  Scenario2_SlowSpeed.node[58].veinsmobility  co2emission  ETV
vector 418  Scenario2_SlowSpeed.node[59].veinsmobility  acceleration  ETV
vector 419  Scenario2_SlowSpeed.node[59].veinsmobility  co2emission  ETV
vector 425  Scenario2_SlowSpeed.node[60].veinsmobility  acceleration  ETV
vector 426  Scenario2_SlowSpeed.node[60].veinsmobility  co2emission  ETV
vector 432  Scenario2_SlowSpeed.node[61].veinsmobility  acceleration  ETV
vector 433  Scenario2_SlowSpeed.node[61].veinsmobility  co2emission  ETV
vector 439  Scenario2_SlowSpeed.node[62].veinsmobility  acceleration  ETV
vector 440  Scenario2_SlowSpeed.node[62].veinsmobility  co2emission  ETV
vector 446  Scenario2_SlowSpeed.node[63].veinsmobility  acceleration  ETV
vector 447  Scenario2_SlowSpeed.node[63].veinsmobility  co2emission  ETV
vector 453  Scenario2_SlowSpeed.node[64].veinsmobility  acceleration  ETV
vector 454  Scenario2_SlowSpeed.node[64].veinsmobility  co2emission  ETV
vector 460  Scenario2_SlowSpeed.node[65].veinsmobility  acceleration  ETV
vector 461  Scenario2_SlowSpeed.node[65].veinsmobility  co2emission  ETV
vector 467  Scenario2_SlowSpeed.node[66].veinsmobility  acceleration  ETV
vector 468  Scenario2_SlowSpeed.node[66].veinsmobility  co2emission  ETV
vector 474  Scenario2_SlowSpeed.node[67].veinsmobility  acceleration  ETV
vector 475  Scenario2_SlowSpeed.node[67].veinsmobility  co2emission  ETV
vector 481  Scenario2_SlowSpeed.node[68].veinsmobility  acceleration  ETV
vector 482  Scenario2_SlowSpeed.node[68].veinsmobility  co2emission  ETV
vector 488  Scenario2_SlowSpeed.node[69].veinsmobility  acceleration  ETV
vector 489  Scenario2_SlowSpeed.node[69].veinsmobility  co2emission  ETV
vector 495  Scenario2_SlowSpeed.node[70].veinsmobility  acceleration  ETV
vector 496  Scenario2_SlowSpeed.node[70].veinsmobility  co2emission  ETV
vector 502  Scenario2_SlowSpeed.node[71].veinsmobility  acceleration  ETV
vector 503  Scenario2_SlowSpeed.node[71].veinsmobility  co2emission  ETV
vector 508  Scenario2_SlowSpeed.node[72].veinsmobility  speed  ETV
vector 515  Scenario2_SlowSpeed.node[73].veinsmobility  speed  ETV
vector 522  Scenario2_SlowSpeed.node[74].veinsmobility  speed  ETV
vector 529  Scenario2_SlowSpeed.node[75].veinsmobility  speed  ETV
vector 536  Scenario2_SlowSpeed.node[76].veinsmobility  speed  ETV
vector 543  Scenario2_SlowSpeed.node[77].veinsmobility  speed  ETV
vector 550  Scenario2_SlowSpeed.node[78].veinsmobility  speed  ETV
vector 557  Scenario2_SlowSpeed.node[79].veinsmobility  speed  ETV
vector 604  Scenario2_SlowSpeed.node[86].veinsmobility  posx  ETV
vector 605  Scenario2_SlowSpeed.node[86].veinsmobility  posy  ETV
vector 611  Scenario2_SlowSpeed.node[87].veinsmobility  posx  ETV
vector 612  Scenario2_SlowSpeed.node[87].veinsmobility  posy  ETV
vector 618  Scenario2_SlowSpeed.node[88].veinsmobility  posx  ETV
vector 619  Scenario2_SlowSpeed.node[88].veinsmobility  posy  ETV
vector 625  Scenario2_SlowSpeed.node[89].veinsmobility  posx  ETV
vector 626  Scenario2_SlowSpeed.node[89].veinsmobility  posy  ETV
vector 632  Scenario2_SlowSpeed.node[90].veinsmobility  posx  ETV
vector 633  Scenario2_SlowSpeed.node[90].veinsmobility  posy  ETV
vector 509  Scenario2_SlowSpeed.node[72].veinsmobility  acceleration  ETV
vector 510  Scenario2_SlowSpeed.node[72].veinsmobility  co2emission  ETV
vector 516  Scenario2_SlowSpeed.node[73].veinsmobility  acceleration  ETV
vector 517  Scenario2_SlowSpeed.node[73].veinsmobility  co2emission  ETV
vector 523  Scenario2_SlowSpeed.node[74].veinsmobility  acceleration  ETV
vector 524  Scenario2_SlowSpeed.node[74].veinsmobility  co2emission  ETV
vector 530  Scenario2_SlowSpeed.node[75].veinsmobility  acceleration  ETV
vector 531  Scenario2_SlowSpeed.node[75].veinsmobility  co2emission  ETV
vector 537  Scenario2_SlowSpeed.node[76].veinsmobility  acceleration  ETV
vector 538  Scenario2_SlowSpeed.node[76].veinsmobility  co2emission  ETV
vector 544  Scenario2_SlowSpeed.node[77].veinsmobility  acceleration  ETV
vector 545  Scenario2_SlowSpeed.node[77].veinsmobility  co2emission  ETV
vector 551  Scenario2_SlowSpeed.node[78].veinsmobility  acceleration  ETV
vector 552  Scenario2_SlowSpeed.node[78].veinsmobility  co2emission  ETV
vector 558  Scenario2_SlowSpeed.node[79].veinsmobility  acceleration  ETV
vector 559  Scenario2_SlowSpeed.node[79].veinsmobility  co2emission  ETV
vector 564  Scenario2_SlowSpeed.node[80].veinsmobility  speed  ETV
vector 571  Scenario2_SlowSpeed.node[81].veinsmobility  speed  ETV
vector 578  Scenario2_SlowSpeed.node[82].veinsmobility  speed  ETV
vector 585  Scenario2_SlowSpeed.node[83].veinsmobility  speed  ETV
vector 592  Scenario2_SlowSpeed.node[84].veinsmobility  speed  ETV
vector 599  Scenario2_SlowSpeed.node[85].veinsmobility  speed  ETV
vector 639  Scenario2_SlowSpeed.node[91].veinsmobility  posx  ETV
vector 640  Scenario2_SlowSpeed.node[91].veinsmobility  posy  ETV
vector 565  Scenario2_SlowSpeed.node[80].veinsmobility  acceleration  ETV
vector 566  Scenario2_SlowSpeed.node[80].veinsmobility  co2emission  ETV
vector 572  Scenario2_SlowSpeed.node[81].veinsmobility  acceleration  ETV
vector 573  Scenario2_SlowSpeed.node[81].veinsmobility  co2emission  ETV
vector 579  Scenario2_SlowSpeed.node[82].veinsmobility  acceleration  ETV
vector 580  Scenario2_SlowSpeed.node[82].veinsmobility  co2emission  ETV
vector 586  Scenario2_SlowSpeed.node[83].veinsmobility  acceleration  ETV
vector 587  Scenario2_SlowSpeed.node[83].veinsmobility  co2emission  ETV
vector 593  Scenario2_SlowSpeed.node[84].veinsmobility  acceleration  ETV
vector 594  Scenario2_SlowSpeed.node[84].veinsmobility  co2emission  ETV
vector 600  Scenario2_SlowSpeed.node[85].veinsmobility  acceleration  ETV
vector 601  Scenario2_SlowSpeed.node[85].veinsmobility  co2emission  ETV
vector 606  Scenario2_SlowSpeed.node[86].veinsmobility  speed  ETV
vector 613  Scenario2_SlowSpeed.node[87].veinsmobility  speed  ETV
vector 620  Scenario2_SlowSpeed.node[88].veinsmobility  speed  ETV
vector 627  Scenario2_SlowSpeed.node[89].veinsmobility  speed  ETV
vector 634  Scenario2_SlowSpeed.node[90].veinsmobility  speed  ETV
vector 646  Scenario2_SlowSpeed.node[92].veinsmobility  posx  ETV
vector 647  Scenario2_SlowSpeed.node[92].veinsmobility  posy  ETV
vector 653  Scenario2_SlowSpeed.node[93].veinsmobility  posx  ETV
vector 654  Scenario2_SlowSpeed.node[93].veinsmobility  posy  ETV
vector 660  Scenario2_SlowSpeed.node[94].veinsmobility  posx  ETV
vector 661  Scenario2_SlowSpeed.node[94].veinsmobility  posy  ETV
vector 667  Scenario2_SlowSpeed.node[95].veinsmobility  posx  ETV
vector 668  Scenario2_SlowSpeed.node[95].veinsmobility  posy  ETV
vector 674  Scenario2_SlowSpeed.node[96].veinsmobility  posx  ETV
vector 675  Scenario2_SlowSpeed.node[96].veinsmobility  posy  ETV
vector 607  Scenario2_SlowSpeed.node[86].veinsmobility  acceleration  ETV
vector 608  Scenario2_SlowSpeed.node[86].veinsmobility  co2emission  ETV
vector 614  Scenario2_SlowSpeed.node[87].veinsmobility  acceleration  ETV
vector 615  Scenario2_SlowSpeed.node[87].veinsmobility  co2emission  ETV
vector 621  Scenario2_SlowSpeed.node[88].veinsmobility  acceleration  ETV
vector 622  Scenario2_SlowSpeed.node[88].veinsmobility  co2emission  ETV
vector 628  Scenario2_SlowSpeed.node[89].veinsmobility  acceleration  ETV
vector 629  Scenario2_SlowSpeed.node[89].veinsmobility  co2emission  ETV
vector 635  Scenario2_SlowSpeed.node[90].veinsmobility  acceleration  ETV
vector 636  Scenario2_SlowSpeed.node[90].veinsmobility  co2emission  ETV
vector 641  Scenario2_SlowSpeed.node[91].veinsmobility  speed  ETV
vector 681  Scenario2_SlowSpeed.node[97].veinsmobility  posx  ETV
vector 682  Scenario2_SlowSpeed.node[97].veinsmobility  posy  ETV
vector 688  Scenario2_SlowSpeed.node[98].veinsmobility  posx  ETV
vector 689  Scenario2_SlowSpeed.node[98].veinsmobility  posy  ETV
vector 695  Scenario2_SlowSpeed.node[99].veinsmobility  posx  ETV
vector 696  Scenario2_SlowSpeed.node[99].veinsmobility  posy  ETV
vector 702  Scenario2_SlowSpeed.node[100].veinsmobility  posx  ETV
vector 703  Scenario2_SlowSpeed.node[100].veinsmobility  posy  ETV
vector 709  Scenario2_SlowSpeed.node[101].veinsmobility  posx  ETV
vector 710  Scenario2_SlowSpeed.node[101].veinsmobility  posy  ETV
vector 716  Scenario2_SlowSpeed.node[102].veinsmobility  posx  ETV
vector 717  Scenario2_SlowSpeed.node[102].veinsmobility  posy  ETV
vector 642  Scenario2_SlowSpeed.node[91].veinsmobility  acceleration  ETV
vector 643  Scenario2_SlowSpeed.node[91].veinsmobility  co2emission  ETV
vector 648  Scenario2_SlowSpeed.node[92].veinsmobility  speed  ETV
vector 655  Scenario2_SlowSpeed.node[93].veinsmobility  speed  ETV
vector 662  Scenario2_SlowSpeed.node[94].veinsmobility  speed  ETV
vector 669  Scenario2_SlowSpeed.node[95].veinsmobility  speed  ETV
vector 676  Scenario2_SlowSpeed.node[96].veinsmobility  speed  ETV
vector 723  Scenario2_SlowSpeed.node[103].veinsmobility  posx  ETV
vector 724  Scenario2_SlowSpeed.node[103].veinsmobility  posy  ETV
vector 730  Scenario2_SlowSpeed.node[104].veinsmobility  posx  ETV
vector 731  Scenario2_SlowSpeed.node[104].veinsmobility  posy  ETV
vector 737  Scenario2_SlowSpeed.node[105].veinsmobility  posx  ETV
vector 738  Scenario2_SlowSpeed.node[105].veinsmobility  posy  ETV
vector 744  Scenario2_SlowSpeed.node[106].veinsmobility  posx  ETV
vector 745  Scenario2_SlowSpeed.node[106].veinsmobility  posy  ETV
vector 751  Scenario2_SlowSpeed.node[107].veinsmobility  posx  ETV
vector 752  Scenario2_SlowSpeed.node[107].veinsmobility  posy  ETV
vector 649  Scenario2_SlowSpeed.node[92].veinsmobility  acceleration  ETV
vector 650  Scenario2_SlowSpeed.node[92].veinsmobility  co2emission  ETV
vector 656  Scenario2_SlowSpeed.node[93].veinsmobility  acceleration  ETV
vector 657  Scenario2_SlowSpeed.node[93].veinsmobility  co2emission  ETV
vector 663  Scenario2_SlowSpeed.node[94].veinsmobility  acceleration  ETV
vector 664  Scenario2_SlowSpeed.node[94].veinsmobility  co2emission  ETV
vector 670  Scenario2_SlowSpeed.node[95].veinsmobility  acceleration  ETV
vector 671  Scenario2_SlowSpeed.node[95].veinsmobility  co2emission  ETV
vector 677  Scenario2_SlowSpeed.node[96].veinsmobility  acceleration  ETV
vector 678  Scenario2_SlowSpeed.node[96].veinsmobility  co2emission  ETV
vector 683  Scenario2_SlowSpeed.node[97].veinsmobility  speed  ETV
vector 690  Scenario2_SlowSpeed.node[98].veinsmobility  speed  ETV
vector 697  Scenario2_SlowSpeed.node[99].veinsmobility  speed  ETV
vector 704  Scenario2_SlowSpeed.node[100].veinsmobility  speed  ETV
vector 711  Scenario2_SlowSpeed.node[101].veinsmobility  speed  ETV
vector 718  Scenario2_SlowSpeed.node[102].veinsmobility  speed  ETV
vector 758  Scenario2_SlowSpeed.node[108].veinsmobility  posx  ETV
vector 759  Scenario2_SlowSpeed.node[108].veinsmobility  posy  ETV
vector 765  Scenario2_SlowSpeed.node[109].veinsmobility  posx  ETV
vector 766  Scenario2_SlowSpeed.node[109].veinsmobility  posy  ETV
vector 772  Scenario2_SlowSpeed.node[110].veinsmobility  posx  ETV
vector 773  Scenario2_SlowSpeed.node[110].veinsmobility  posy  ETV
vector 779  Scenario2_SlowSpeed.node[111].veinsmobility  posx  ETV
vector 780  Scenario2_SlowSpeed.node[111].veinsmobility  posy  ETV
vector 786  Scenario2_SlowSpeed.node[112].veinsmobility  posx  ETV
vector 787  Scenario2_SlowSpeed.node[112].veinsmobility  posy  ETV
vector 793  Scenario2_SlowSpeed.node[113].veinsmobility  posx  ETV
vector 794  Scenario2_SlowSpeed.node[113].veinsmobility  posy  ETV
vector 684  Scenario2_SlowSpeed.node[97].veinsmobility  acceleration  ETV
vector 685  Scenario2_SlowSpeed.node[97].veinsmobility  co2emission  ETV
vector 691  Scenario2_SlowSpeed.node[98].veinsmobility  acceleration  ETV
vector 692  Scenario2_SlowSpeed.node[98].veinsmobility  co2emission  ETV
vector 698  Scenario2_SlowSpeed.node[99].veinsmobility  acceleration  ETV
vector 699  Scenario2_SlowSpeed.node[99].veinsmobility  co2emission  ETV
vector 705  Scenario2_SlowSpeed.node[100].veinsmobility  acceleration  ETV
vector 706  Scenario2_SlowSpeed.node[100].veinsmobility  co2emission  ETV
vector 712  Scenario2_SlowSpeed.node[101].veinsmobility  acceleration  ETV
vector 713  Scenario2_SlowSpeed.node[101].veinsmobility  co2emission  ETV
vector 719  Scenario2_SlowSpeed.node[102].veinsmobility  acceleration  ETV
vector 720  Scenario2_SlowSpeed.node[102].veinsmobility  co2emission  ETV
vector 725  Scenario2_SlowSpeed.node[103].veinsmobility  speed  ETV
vector 732  Scenario2_SlowSpeed.node[104].veinsmobility  speed  ETV
vector 739  Scenario2_SlowSpeed.node[105].veinsmobility  speed  ETV
vector 746  Scenario2_SlowSpeed.node[106].veinsmobility  speed  ETV
vector 753  Scenario2_SlowSpeed.node[107].veinsmobility  speed  ETV
vector 800  Scenario2_SlowSpeed.node[114].veinsmobility  posx  ETV
vector 801  Scenario2_SlowSpeed.node[114].veinsmobility  posy  ETV
vector 807  Scenario2_SlowSpeed.node[115].veinsmobility  posx  ETV
vector 808  Scenario2_SlowSpeed.node[115].veinsmobility  posy  ETV
vector 726  Scenario2_SlowSpeed.node[103].veinsmobility  acceleration  ETV
vector 727  Scenario2_SlowSpeed.node[103].veinsmobility  co2emission  ETV
vector 733  Scenario2_SlowSpeed.node[104].veinsmobility  acceleration  ETV
vector 734  Scenario2_SlowSpeed.node[104].veinsmobility  co2emission  ETV
vector 740  Scenario2_SlowSpeed.node[105].veinsmobility  acceleration  ETV
vector 741  Scenario2_SlowSpeed.node[105].veinsmobility  co2emission  ETV
vector 747  Scenario2_SlowSpeed.node[106].veinsmobility  acceleration  ETV
vector 748  Scenario2_SlowSpeed.node[106].veinsmobility  co2emission  ETV
vector 754  Scenario2_SlowSpeed.node[107].veinsmobility  acceleration  ETV
vector 755  Scenario2_SlowSpeed.node[107].veinsmobility  co2emission  ETV
vector 760  Scenario2_SlowSpeed.node[108].veinsmobility  speed  ETV
vector 767  Scenario2_SlowSpeed.node[109].veinsmobility  speed  ETV
vector 774  Scenario2_SlowSpeed.node[110].veinsmobility  speed  ETV
vector 781  Scenario2_SlowSpeed.node[111].veinsmobility  speed  ETV
vector 788  Scenario2_SlowSpeed.node[112].veinsmobility  speed  ETV
vector 795  Scenario2_SlowSpeed.node[113].veinsmobility  speed  ETV
vector 814  Scenario2_SlowSpeed.node[116].veinsmobility  posx  ETV
vector 815  Scenario2_SlowSpeed.node[116].veinsmobility  posy  ETV
vector 821  Scenario2_SlowSpeed.node[117].veinsmobility  posx  ETV
vector 822  Scenario2_SlowSpeed.node[117].veinsmobility  posy  ETV
vector 828  Scenario2_SlowSpeed.node[118].veinsmobility  posx  ETV
vector 829  Scenario2_SlowSpeed.node[118].veinsmobility  posy  ETV
vector 835  Scenario2_SlowSpeed.node[119].veinsmobility  posx  ETV
vector 836  Scenario2_SlowSpeed.node[119].veinsmobility  posy  ETV
vector 842  Scenario2_SlowSpeed.node[120].veinsmobility  posx  ETV
vector 843  Scenario2_SlowSpeed.node[120].veinsmobility  posy  ETV
vector 849  Scenario2_SlowSpeed.node[121].veinsmobility  posx  ETV
vector 850  Scenario2_SlowSpeed.node[121].veinsmobility  posy  ETV
vector 856  Scenario2_SlowSpeed.node[122].veinsmobility  posx  ETV
vector 857  Scenario2_SlowSpeed.node[122].veinsmobility  posy  ETV
vector 863  Scenario2_SlowSpeed.node[123].veinsmobility  posx  ETV
vector 864  Scenario2_SlowSpeed.node[123].veinsmobility  posy  ETV
vector 870  Scenario2_SlowSpeed.node[124].veinsmobility  posx  ETV
vector 871  Scenario2_SlowSpeed.node[124].veinsmobility  posy  ETV
vector 761  Scenario2_SlowSpeed.node[108].veinsmobility  acceleration  ETV
vector 762  Scenario2_SlowSpeed.node[108].veinsmobility  co2emission  ETV
vector 768  Scenario2_SlowSpeed.node[109].veinsmobility  acceleration  ETV
vector 769  Scenario2_SlowSpeed.node[109].veinsmobility  co2emission  ETV
vector 775  Scenario2_SlowSpeed.node[110].veinsmobility  acceleration  ETV
vector 776  Scenario2_SlowSpeed.node[110].veinsmobility  co2emission  ETV
vector 782  Scenario2_SlowSpeed.node[111].veinsmobility  acceleration  ETV
vector 783  Scenario2_SlowSpeed.node[111].veinsmobility  co2emission  ETV
vector 789  Scenario2_SlowSpeed.node[112].veinsmobility  acceleration  ETV
vector 790  Scenario2_SlowSpeed.node[112].veinsmobility  co2emission  ETV
vector 796  Scenario2_SlowSpeed.node[113].veinsmobility  acceleration  ETV
vector 797  Scenario2_SlowSpeed.node[113].veinsmobility  co2emission  ETV
vector 802  Scenario2_SlowSpeed.node[114].veinsmobility  speed  ETV
vector 809  Scenario2_SlowSpeed.node[115].veinsmobility  speed  ETV
vector 877  Scenario2_SlowSpeed.node[125].veinsmobility  posx  ETV
vector 878  Scenario2_SlowSpeed.node[125].veinsmobility  posy  ETV
vector 884  Scenario2_SlowSpeed.node[126].veinsmobility  posx  ETV
vector 885  Scenario2_SlowSpeed.node[126].veinsmobility  posy  ETV
vector 891  Scenario2_SlowSpeed.node[127].veinsmobility  posx  ETV
vector 892  Scenario2_SlowSpeed.node[127].veinsmobility  posy  ETV
vector 803  Scenario2_SlowSpeed.node[114].veinsmobility  acceleration  ETV
vector 804  Scenario2_SlowSpeed.node[114].veinsmobility  co2emission  ETV
vector 810  Scenario2_SlowSpeed.node[115].veinsmobility  acceleration  ETV
vector 811  Scenario2_SlowSpeed.node[115].veinsmobility  co2emission  ETV
vector 816  Scenario2_SlowSpeed.node[116].veinsmobility  speed  ETV
vector 823  Scenario2_SlowSpeed.node[117].veinsmobility  speed  ETV
vector 830  Scenario2_SlowSpeed.node[118].veinsmobility  speed  ETV
vector 837  Scenario2_SlowSpeed.node[119].veinsmobility  speed  ETV
vector 844  Scenario2_SlowSpeed.node[120].veinsmobility  speed  ETV
vector 851  Scenario2_SlowSpeed.node[121].veinsmobility  speed  ETV
vector 858  Scenario2_SlowSpeed.node[122].veinsmobility  speed  ETV
vector 865  Scenario2_SlowSpeed.node[123].veinsmobility  speed  ETV
vector 872  Scenario2_SlowSpeed.node[124].veinsmobility  speed  ETV
vector 898  Scenario2_SlowSpeed.node[128].veinsmobility  posx  ETV
vector 899  Scenario2_SlowSpeed.node[128].veinsmobility  posy  ETV
vector 905  Scenario2_SlowSpeed.node[129].veinsmobility  posx  ETV
vector 906  Scenario2_SlowSpeed.node[129].veinsmobility  posy  ETV
vector 912  Scenario2_SlowSpeed.node[130].veinsmobility  posx  ETV
vector 913  Scenario2_SlowSpeed.node[130].veinsmobility  posy  ETV
vector 919  Scenario2_SlowSpeed.node[131].veinsmobility  posx  ETV
vector 920  Scenario2_SlowSpeed.node[131].veinsmobility  posy  ETV
vector 926  Scenario2_SlowSpeed.node[132].veinsmobility  posx  ETV
vector 927  Scenario2_SlowSpeed.node[132].veinsmobility  posy  ETV
vector 933  Scenario2_SlowSpeed.node[133].veinsmobility  posx  ETV
vector 934  Scenario2_SlowSpeed.node[133].veinsmobility  posy  ETV
vector 940  Scenario2_SlowSpeed.node[134].veinsmobility  posx  ETV
vector 941  Scenario2_SlowSpeed.node[134].veinsmobility  posy  ETV
vector 947  Scenario2_SlowSpeed.node[135].veinsmobility  posx  ETV
vector 948  Scenario2_SlowSpeed.node[135].veinsmobility  posy  ETV
vector 954  Scenario2_SlowSpeed.node[136].veinsmobility  posx  ETV
vector 955  Scenario2_SlowSpeed.node[136].veinsmobility  posy  ETV
vector 961  Scenario2_SlowSpeed.node[137].veinsmobility  posx  ETV
vector 962  Scenario2_SlowSpeed.node[137].veinsmobility  posy  ETV
vector 968  Scenario2_SlowSpeed.node[138].veinsmobility  posx  ETV
vector 969  Scenario2_SlowSpeed.node[138].veinsmobility  posy  ETV
vector 975  Scenario2_SlowSpeed.node[139].veinsmobility  posx  ETV
vector 976  Scenario2_SlowSpeed.node[139].veinsmobility  posy  ETV
vector 982  Scenario2_SlowSpeed.node[140].veinsmobility  posx  ETV
vector 983  Scenario2_SlowSpeed.node[140].veinsmobility  posy  ETV
vector 817  Scenario2_SlowSpeed.node[116].veinsmobility  acceleration  ETV
vector 818  Scenario2_SlowSpeed.node[116].veinsmobility  co2emission  ETV
vector 824  Scenario2_SlowSpeed.node[117].veinsmobility  acceleration  ETV
vector 825  Scenario2_SlowSpeed.node[117].veinsmobility  co2emission  ETV
vector 831  Scenario2_SlowSpeed.node[118].veinsmobility  acceleration  ETV
vector 832  Scenario2_SlowSpeed.node[118].veinsmobility  co2emission  ETV
vector 838  Scenario2_SlowSpeed.node[119].veinsmobility  acceleration  ETV
vector 839  Scenario2_SlowSpeed.node[119].veinsmobility  co2emission  ETV
vector 845  Scenario2_SlowSpeed.node[120].veinsmobility  acceleration  ETV
vector 846  Scenario2_SlowSpeed.node[120].veinsmobility  co2emission  ETV
vector 852  Scenario2_SlowSpeed.node[121].veinsmobility  acceleration  ETV
vector 853  Scenario2_SlowSpeed.node[121].veinsmobility  co2emission  ETV
vector 859  Scenario2_SlowSpeed.node[122].veinsmobility  acceleration  ETV
vector 860  Scenario2_SlowSpeed.node[122].veinsmobility  co2emission  ETV
vector 866  Scenario2_SlowSpeed.node[123].veinsmobility  acceleration  ETV
vector 867  Scenario2_SlowSpeed.node[123].veinsmobility  co2emission  ETV
vector 873  Scenario2_SlowSpeed.node[124].veinsmobility  acceleration  ETV
vector 874  Scenario2_SlowSpeed.node[124].veinsmobility  co2emission  ETV
vector 879  Scenario2_SlowSpeed.node[125].veinsmobility  speed  ETV
vector 886  Scenario2_SlowSpeed.node[126].veinsmobility  speed  ETV
vector 893  Scenario2_SlowSpeed.node[127].veinsmobility  speed  ETV
vector 989  Scenario2_SlowSpeed.node[141].veinsmobility  posx  ETV
vector 990  Scenario2_SlowSpeed.node[141].veinsmobility  posy  ETV
vector 996  Scenario2_SlowSpeed.node[142].veinsmobility  posx  ETV
vector 997  Scenario2_SlowSpeed.node[142].veinsmobility  posy  ETV
vector 1003  Scenario2_SlowSpeed.node[143].veinsmobility  posx  ETV
vector 1004  Scenario2_SlowSpeed.node[143].veinsmobility  posy  ETV
vector 1010  Scenario2_SlowSpeed.node[144].veinsmobility  posx  ETV
vector 1011  Scenario2_SlowSpeed.node[144].veinsmobility  posy  ETV
vector 1017  Scenario2_SlowSpeed.node[145].veinsmobility  posx  ETV
vector 1018  Scenario2_SlowSpeed.node[145].veinsmobility  posy  ETV
vector 1024  Scenario2_SlowSpeed.node[146].veinsmobility  posx  ETV
vector 1025  Scenario2_SlowSpeed.node[146].veinsmobility  posy  ETV
vector 880  Scenario2_SlowSpeed.node[125].veinsmobility  acceleration  ETV
vector 881  Scenario2_SlowSpeed.node[125].veinsmobility  co2emission  ETV
vector 887  Scenario2_SlowSpeed.node[126].veinsmobility  acceleration  ETV
vector 888  Scenario2_SlowSpeed.node[126].veinsmobility  co2emission  ETV
vector 894  Scenario2_SlowSpeed.node[127].veinsmobility  acceleration  ETV
vector 895  Scenario2_SlowSpeed.node[127].veinsmobility  co2emission  ETV
vector 900  Scenario2_SlowSpeed.node[128].veinsmobility  speed  ETV
vector 907  Scenario2_SlowSpeed.node[129].veinsmobility  speed  ETV
vector 914  Scenario2_SlowSpeed.node[130].veinsmobility  speed  ETV
vector 921  Scenario2_SlowSpeed.node[131].veinsmobility  speed  ETV
vector 928  Scenario2_SlowSpeed.node[132].veinsmobility  speed  ETV
vector 935  Scenario2_SlowSpeed.node[133].veinsmobility  speed  ETV
vector 942  Scenario2_SlowSpeed.node[134].veinsmobility  speed  ETV
vector 949  Scenario2_SlowSpeed.node[135].veinsmobility  speed  ETV
vector 956  Scenario2_SlowSpeed.node[136].veinsmobility  speed  ETV
vector 963  Scenario2_SlowSpeed.node[137].veinsmobility  speed  ETV
vector 970  Scenario2_SlowSpeed.node[138].veinsmobility  speed  ETV
vector 977  Scenario2_SlowSpeed.node[139].veinsmobility  speed  ETV
vector 984  Scenario2_SlowSpeed.node[140].veinsmobility  speed  ETV
vector 1031  Scenario2_SlowSpeed.node[147].veinsmobility  posx  ETV
vector 1032  Scenario2_SlowSpeed.node[147].veinsmobility  posy  ETV
vector 1038  Scenario2_SlowSpeed.node[148].veinsmobility  posx  ETV
vector 1039  Scenario2_SlowSpeed.node[148].veinsmobility  posy  ETV
vector 1045  Scenario2_SlowSpeed.node[149].veinsmobility  posx  ETV
vector 1046  Scenario2_SlowSpeed.node[149].veinsmobility  posy  ETV
vector 1052  Scenario2_SlowSpeed.node[150].veinsmobility  posx  ETV
vector 1053  Scenario2_SlowSpeed.node[150].veinsmobility  posy  ETV
vector 1059  Scenario2_SlowSpeed.node[151].veinsmobility  posx  ETV
vector 1060  Scenario2_SlowSpeed.node[151].veinsmobility  posy  ETV
vector 901  Scenario2_SlowSpeed.node[128].veinsmobility  acceleration  ETV
vector 902  Scenario2_SlowSpeed.node[128].veinsmobility  co2emission  ETV
vector 908  Scenario2_SlowSpeed.node[129].veinsmobility  acceleration  ETV
vector 909  Scenario2_SlowSpeed.node[129].veinsmobility  co2emission  ETV
vector 915  Scenario2_SlowSpeed.node[130].veinsmobility  acceleration  ETV
vector 916  Scenario2_SlowSpeed.node[130].veinsmobility  co2emission  ETV
vector 922  Scenario2_SlowSpeed.node[131].veinsmobility  acceleration  ETV
vector 923  Scenario2_SlowSpeed.node[131].veinsmobility  co2emission  ETV
vector 929  Scenario2_SlowSpeed.node[132].veinsmobility  acceleration  ETV
vector 930  Scenario2_SlowSpeed.node[132].veinsmobility  co2emission  ETV
vector 936  Scenario2_SlowSpeed.node[133].veinsmobility  acceleration  ETV
vector 937  Scenario2_SlowSpeed.node[133].veinsmobility  co2emission  ETV
vector 943  Scenario2_SlowSpeed.node[134].veinsmobility  acceleration  ETV
vector 944  Scenario2_SlowSpeed.node[134].veinsmobility  co2emission  ETV
vector 950  Scenario2_SlowSpeed.node[135].veinsmobility  acceleration  ETV
vector 951  Scenario2_SlowSpeed.node[135].veinsmobility  co2emission  ETV
vector 957  Scenario2_SlowSpeed.node[136].veinsmobility  acceleration  ETV
vector 958  Scenario2_SlowSpeed.node[136].veinsmobility  co2emission  ETV
vector 964  Scenario2_SlowSpeed.node[137].veinsmobility  acceleration  ETV
vector 965  Scenario2_SlowSpeed.node[137].veinsmobility  co2emission  ETV
vector 971  Scenario2_SlowSpeed.node[138].veinsmobility  acceleration  ETV
vector 972  Scenario2_SlowSpeed.node[138].veinsmobility  co2emission  ETV
vector 978  Scenario2_SlowSpeed.node[139].veinsmobility  acceleration  ETV
vector 979  Scenario2_SlowSpeed.node[139].veinsmobility  co2emission  ETV
vector 985  Scenario2_SlowSpeed.node[140].veinsmobility  acceleration  ETV
vector 986  Scenario2_SlowSpeed.node[140].veinsmobility  co2emission  ETV
vector 991  Scenario2_SlowSpeed.node[141].veinsmobility  speed  ETV
vector 998  Scenario2_SlowSpeed.node[142].veinsmobility  speed  ETV
vector 1005  Scenario2_SlowSpeed.node[143].veinsmobility  speed  ETV
vector 1012  Scenario2_SlowSpeed.node[144].veinsmobility  speed  ETV
vector 1019  Scenario2_SlowSpeed.node[145].veinsmobility  speed  ETV
vector 1026  Scenario2_SlowSpeed.node[146].veinsmobility  speed  ETV
vector 1066  Scenario2_SlowSpeed.node[152].veinsmobility  posx  ETV
vector 1067  Scenario2_SlowSpeed.node[152].veinsmobility  posy  ETV
vector 1073  Scenario2_SlowSpeed.node[153].veinsmobility  posx  ETV
vector 1074  Scenario2_SlowSpeed.node[153].veinsmobility  posy  ETV
vector 1080  Scenario2_SlowSpeed.node[154].veinsmobility  posx  ETV
vector 1081  Scenario2_SlowSpeed.node[154].veinsmobility  posy  ETV
vector 1087  Scenario2_SlowSpeed.node[155].veinsmobility  posx  ETV
vector 1088  Scenario2_SlowSpeed.node[155].veinsmobility  posy  ETV
vector 1094  Scenario2_SlowSpeed.node[156].veinsmobility  posx  ETV
vector 1095  Scenario2_SlowSpeed.node[156].veinsmobility  posy  ETV
vector 992  Scenario2_SlowSpeed.node[141].veinsmobility  acceleration  ETV
vector 993  Scenario2_SlowSpeed.node[141].veinsmobility  co2emission  ETV
vector 999  Scenario2_SlowSpeed.node[142].veinsmobility  acceleration  ETV
vector 1000  Scenario2_SlowSpeed.node[142].veinsmobility  co2emission  ETV
vector 1006  Scenario2_SlowSpeed.node[143].veinsmobility  acceleration  ETV
vector 1007  Scenario2_SlowSpeed.node[143].veinsmobility  co2emission  ETV
vector 1013  Scenario2_SlowSpeed.node[144].veinsmobility  acceleration  ETV
vector 1014  Scenario2_SlowSpeed.node[144].veinsmobility  co2emission  ETV
vector 1020  Scenario2_SlowSpeed.node[145].veinsmobility  acceleration  ETV
vector 1021  Scenario2_SlowSpeed.node[145].veinsmobility  co2emission  ETV
vector 1027  Scenario2_SlowSpeed.node[146].veinsmobility  acceleration  ETV
vector 1028  Scenario2_SlowSpeed.node[146].veinsmobility  co2emission  ETV
vector 1033  Scenario2_SlowSpeed.node[147].veinsmobility  speed  ETV
vector 1040  Scenario2_SlowSpeed.node[148].veinsmobility  speed  ETV
vector 1047  Scenario2_SlowSpeed.node[149].veinsmobility  speed  ETV
vector 1054  Scenario2_SlowSpeed.node[150].veinsmobility  speed  ETV
vector 1061  Scenario2_SlowSpeed.node[151].veinsmobility  speed  ETV
vector 1101  Scenario2_SlowSpeed.node[157].veinsmobility  posx  ETV
vector 1102  Scenario2_SlowSpeed.node[157].veinsmobility  posy  ETV
vector 1108  Scenario2_SlowSpeed.node[158].veinsmobility  posx  ETV
vector 1109  Scenario2_SlowSpeed.node[158].veinsmobility  posy  ETV
vector 1115  Scenario2_SlowSpeed.node[159].veinsmobility  posx  ETV
vector 1116  Scenario2_SlowSpeed.node[159].veinsmobility  posy  ETV
vector 1122  Scenario2_SlowSpeed.node[160].veinsmobility  posx  ETV
vector 1123  Scenario2_SlowSpeed.node[160].veinsmobility  posy  ETV
vector 1034  Scenario2_SlowSpeed.node[147].veinsmobility  acceleration  ETV
vector 1035  Scenario2_SlowSpeed.node[147].veinsmobility  co2emission  ETV
vector 1041  Scenario2_SlowSpeed.node[148].veinsmobility  acceleration  ETV
vector 1042  Scenario2_SlowSpeed.node[148].veinsmobility  co2emission  ETV
vector 1048  Scenario2_SlowSpeed.node[149].veinsmobility  acceleration  ETV
vector 1049  Scenario2_SlowSpeed.node[149].veinsmobility  co2emission  ETV
vector 1055  Scenario2_SlowSpeed.node[150].veinsmobility  acceleration  ETV
vector 1056  Scenario2_SlowSpeed.node[150].veinsmobility  co2emission  ETV
vector 1062  Scenario2_SlowSpeed.node[151].veinsmobility  acceleration  ETV
vector 1063  Scenario2_SlowSpeed.node[151].veinsmobility  co2emission  ETV
vector 1068  Scenario2_SlowSpeed.node[152].veinsmobility  speed  ETV
vector 1075  Scenario2_SlowSpeed.node[153].veinsmobility  speed  ETV
vector 1082  Scenario2_SlowSpeed.node[154].veinsmobility  speed  ETV
vector 1089  Scenario2_SlowSpeed.node[155].veinsmobility  speed  ETV
vector 1096  Scenario2_SlowSpeed.node[156].veinsmobility  speed  ETV
vector 1129  Scenario2_SlowSpeed.node[161].veinsmobility  posx  ETV
vector 1130  Scenario2_SlowSpeed.node[161].veinsmobility  posy  ETV
vector 1136  Scenario2_SlowSpeed.node[162].veinsmobility  posx  ETV
vector 1137  Scenario2_SlowSpeed.node[162].veinsmobility  posy  ETV
vector 1143  Scenario2_SlowSpeed.node[163].veinsmobility  posx  ETV
vector 1144  Scenario2_SlowSpeed.node[163].veinsmobility  posy  ETV
vector 1069  Scenario2_SlowSpeed.node[152].veinsmobility  acceleration  ETV
vector 1070  Scenario2_SlowSpeed.node[152].veinsmobility  co2emission  ETV
vector 1076  Scenario2_SlowSpeed.node[153].veinsmobility  acceleration  ETV
vector 1077  Scenario2_SlowSpeed.node[153].veinsmobility  co2emission  ETV
vector 1083  Scenario2_SlowSpeed.node[154].veinsmobility  acceleration  ETV
vector 1084  Scenario2_SlowSpeed.node[154].veinsmobility  co2emission  ETV
vector 1090  Scenario2_SlowSpeed.node[155].veinsmobility  acceleration  ETV
vector 1091  Scenario2_SlowSpeed.node[155].veinsmobility  co2emission  ETV
vector 1097  Scenario2_SlowSpeed.node[156].veinsmobility  acceleration  ETV
vector 1098  Scenario2_SlowSpeed.node[156].veinsmobility  co2emission  ETV
vector 1103  Scenario2_SlowSpeed.node[157].veinsmobility  speed  ETV
vector 1110  Scenario2_SlowSpeed.node[158].veinsmobility  speed  ETV
vector 1117  Scenario2_SlowSpeed.node[159].veinsmobility  speed  ETV
vector 1124  Scenario2_SlowSpeed.node[160].veinsmobility  speed  ETV
vector 1150  Scenario2_SlowSpeed.node[164].veinsmobility  posx  ETV
vector 1151  Scenario2_SlowSpeed.node[164].veinsmobility  posy  ETV
vector 1157  Scenario2_SlowSpeed.node[165].veinsmobility  posx  ETV
vector 1158  Scenario2_SlowSpeed.node[165].veinsmobility  posy  ETV
vector 1164  Scenario2_SlowSpeed.node[166].veinsmobility  posx  ETV
vector 1165  Scenario2_SlowSpeed.node[166].veinsmobility  posy  ETV
vector 1171  Scenario2_SlowSpeed.node[167].veinsmobility  posx  ETV
vector 1172  Scenario2_SlowSpeed.node[167].veinsmobility  posy  ETV
vector 1178  Scenario2_SlowSpeed.node[168].veinsmobility  posx  ETV
vector 1179  Scenario2_SlowSpeed.node[168].veinsmobility  posy  ETV
vector 1185  Scenario2_SlowSpeed.node[169].veinsmobility  posx  ETV
vector 1186  Scenario2_SlowSpeed.node[169].veinsmobility  posy  ETV
vector 1192  Scenario2_SlowSpeed.node[170].veinsmobility  posx  ETV
vector 1193  Scenario2_SlowSpeed.node[170].veinsmobility  posy  ETV
vector 1199  Scenario2_SlowSpeed.node[171].veinsmobility  posx  ETV
vector 1200  Scenario2_SlowSpeed.node[171].veinsmobility  posy  ETV
vector 1104  Scenario2_SlowSpeed.node[157].veinsmobility  acceleration  ETV
vector 1105  Scenario2_SlowSpeed.node[157].veinsmobility  co2emission  ETV
vector 1111  Scenario2_SlowSpeed.node[158].veinsmobility  acceleration  ETV
vector 1112  Scenario2_SlowSpeed.node[158].veinsmobility  co2emission  ETV
vector 1118  Scenario2_SlowSpeed.node[159].veinsmobility  acceleration  ETV
vector 1119  Scenario2_SlowSpeed.node[159].veinsmobility  co2emission  ETV
vector 1125  Scenario2_SlowSpeed.node[160].veinsmobility  acceleration  ETV
vector 1126  Scenario2_SlowSpeed.node[160].veinsmobility  co2emission  ETV
vector 1131  Scenario2_SlowSpeed.node[161].veinsmobility  speed  ETV
vector 1138  Scenario2_SlowSpeed.node[162].veinsmobility  speed  ETV
vector 1145  Scenario2_SlowSpeed.node[163].veinsmobility  speed  ETV
vector 1206  Scenario2_SlowSpeed.node[172].veinsmobility  posx  ETV
vector 1207  Scenario2_SlowSpeed.node[172].veinsmobility  posy  ETV
vector 1213  Scenario2_SlowSpeed.node[173].veinsmobility  posx  ETV
vector 1214  Scenario2_SlowSpeed.node[173].veinsmobility  posy  ETV
vector 1132  Scenario2_SlowSpeed.node[161].veinsmobility  acceleration  ETV
vector 1133  Scenario2_SlowSpeed.node[161].veinsmobility  co2emission  ETV
vector 1139  Scenario2_SlowSpeed.node[162].veinsmobility  acceleration  ETV
vector 1140  Scenario2_SlowSpeed.node[162].veinsmobility  co2emission  ETV
vector 1146  Scenario2_SlowSpeed.node[163].veinsmobility  acceleration  ETV
vector 1147  Scenario2_SlowSpeed.node[163].veinsmobility  co2emission  ETV
vector 1152  Scenario2_SlowSpeed.node[164].veinsmobility  speed  ETV
vector 1159  Scenario2_SlowSpeed.node[165].veinsmobility  speed  ETV
vector 1166  Scenario2_SlowSpeed.node[166].veinsmobility  speed  ETV
vector 1173  Scenario2_SlowSpeed.node[167].veinsmobility  speed  ETV
vector 1180  Scenario2_SlowSpeed.node[168].veinsmobility  speed  ETV
vector 1187  Scenario2_SlowSpeed.node[169].veinsmobility  speed  ETV
vector 1194  Scenario2_SlowSpeed.node[170].veinsmobility  speed  ETV
vector 1201  Scenario2_SlowSpeed.node[171].veinsmobility  speed  ETV
vector 1220  Scenario2_SlowSpeed.node[174].veinsmobility  posx  ETV
vector 1221  Scenario2_SlowSpeed.node[174].veinsmobility  posy  ETV
vector 1227  Scenario2_SlowSpeed.node[175].veinsmobility  posx  ETV
vector 1228  Scenario2_SlowSpeed.node[175].veinsmobility  posy  ETV
vector 1234  Scenario2_SlowSpeed.node[176].veinsmobility  posx  ETV
vector 1235  Scenario2_SlowSpeed.node[176].veinsmobility  posy  ETV
vector 1153  Scenario2_SlowSpeed.node[164].veinsmobility  acceleration  ETV
vector 1154  Scenario2_SlowSpeed.node[164].veinsmobility  co2emission  ETV
vector 1160  Scenario2_SlowSpeed.node[165].veinsmobility  acceleration  ETV
vector 1161  Scenario2_SlowSpeed.node[165].veinsmobility  co2emission  ETV
vector 1167  Scenario2_SlowSpeed.node[166].veinsmobility  acceleration  ETV
vector 1168  Scenario2_SlowSpeed.node[166].veinsmobility  co2emission  ETV
vector 1174  Scenario2_SlowSpeed.node[167].veinsmobility  acceleration  ETV
vector 1175  Scenario2_SlowSpeed.node[167].veinsmobility  co2emission  ETV
vector 1181  Scenario2_SlowSpeed.node[168].veinsmobility  acceleration  ETV
vector 1182  Scenario2_SlowSpeed.node[168].veinsmobility  co2emission  ETV
vector 1188  Scenario2_SlowSpeed.node[169].veinsmobility  acceleration  ETV
vector 1189  Scenario2_SlowSpeed.node[169].veinsmobility  co2emission  ETV
vector 1195  Scenario2_SlowSpeed.node[170].veinsmobility  acceleration  ETV
vector 1196  Scenario2_SlowSpeed.node[170].veinsmobility  co2emission  ETV
vector 1202  Scenario2_SlowSpeed.node[171].veinsmobility  acceleration  ETV
vector 1203  Scenario2_SlowSpeed.node[171].veinsmobility  co2emission  ETV
vector 1208  Scenario2_SlowSpeed.node[172].veinsmobility  speed  ETV
vector 1215  Scenario2_SlowSpeed.node[173].veinsmobility  speed  ETV
vector 1241  Scenario2_SlowSpeed.node[177].veinsmobility  posx  ETV
vector 1242  Scenario2_SlowSpeed.node[177].veinsmobility  posy  ETV
vector 1248  Scenario2_SlowSpeed.node[178].veinsmobility  posx  ETV
vector 1249  Scenario2_SlowSpeed.node[178].veinsmobility  posy  ETV
vector 1255  Scenario2_SlowSpeed.node[179].veinsmobility  posx  ETV
vector 1256  Scenario2_SlowSpeed.node[179].veinsmobility  posy  ETV
vector 1262  Scenario2_SlowSpeed.node[180].veinsmobility  posx  ETV
vector 1263  Scenario2_SlowSpeed.node[180].veinsmobility  posy  ETV
vector 1269  Scenario2_SlowSpeed.node[181].veinsmobility  posx  ETV
vector 1270  Scenario2_SlowSpeed.node[181].veinsmobility  posy  ETV
vector 1276  Scenario2_SlowSpeed.node[182].veinsmobility  posx  ETV
vector 1277  Scenario2_SlowSpeed.node[182].veinsmobility  posy  ETV
vector 1283  Scenario2_SlowSpeed.node[183].veinsmobility  posx  ETV
vector 1284  Scenario2_SlowSpeed.node[183].veinsmobility  posy  ETV
vector 1290  Scenario2_SlowSpeed.node[184].veinsmobility  posx  ETV
vector 1291  Scenario2_SlowSpeed.node[184].veinsmobility  posy  ETV
vector 1297  Scenario2_SlowSpeed.node[185].veinsmobility  posx  ETV
vector 1298  Scenario2_SlowSpeed.node[185].veinsmobility  posy  ETV
vector 1209  Scenario2_SlowSpeed.node[172].veinsmobility  acceleration  ETV
vector 1210  Scenario2_SlowSpeed.node[172].veinsmobility  co2emission  ETV
vector 1216  Scenario2_SlowSpeed.node[173].veinsmobility  acceleration  ETV
vector 1217  Scenario2_SlowSpeed.node[173].veinsmobility  co2emission  ETV
vector 1222  Scenario2_SlowSpeed.node[174].veinsmobility  speed  ETV
vector 1229  Scenario2_SlowSpeed.node[175].veinsmobility  speed  ETV
vector 1236  Scenario2_SlowSpeed.node[176].veinsmobility  speed  ETV
vector 1304  Scenario2_SlowSpeed.node[186].veinsmobility  posx  ETV
vector 1305  Scenario2_SlowSpeed.node[186].veinsmobility  posy  ETV
vector 1311  Scenario2_SlowSpeed.node[187].veinsmobility  posx  ETV
vector 1312  Scenario2_SlowSpeed.node[187].veinsmobility  posy  ETV
vector 1223  Scenario2_SlowSpeed.node[174].veinsmobility  acceleration  ETV
vector 1224  Scenario2_SlowSpeed.node[174].veinsmobility  co2emission  ETV
vector 1230  Scenario2_SlowSpeed.node[175].veinsmobility  acceleration  ETV
vector 1231  Scenario2_SlowSpeed.node[175].veinsmobility  co2emission  ETV
vector 1237  Scenario2_SlowSpeed.node[176].veinsmobility  acceleration  ETV
vector 1238  Scenario2_SlowSpeed.node[176].veinsmobility  co2emission  ETV
vector 1243  Scenario2_SlowSpeed.node[177].veinsmobility  speed  ETV
vector 1250  Scenario2_SlowSpeed.node[178].veinsmobility  speed  ETV
vector 1257  Scenario2_SlowSpeed.node[179].veinsmobility  speed  ETV
vector 1264  Scenario2_SlowSpeed.node[180].veinsmobility  speed  ETV
vector 1271  Scenario2_SlowSpeed.node[181].veinsmobility  speed  ETV
vector 1278  Scenario2_SlowSpeed.node[182].veinsmobility  speed  ETV
vector 1285  Scenario2_SlowSpeed.node[183].veinsmobility  speed  ETV
vector 1292  Scenario2_SlowSpeed.node[184].veinsmobility  speed  ETV
vector 1299  Scenario2_SlowSpeed.node[185].veinsmobility  speed  ETV
vector 1318  Scenario2_SlowSpeed.node[188].veinsmobility  posx  ETV
vector 1319  Scenario2_SlowSpeed.node[188].veinsmobility  posy  ETV
vector 1325  Scenario2_SlowSpeed.node[189].veinsmobility  posx  ETV
vector 1326  Scenario2_SlowSpeed.node[189].veinsmobility  posy  ETV
vector 1332  Scenario2_SlowSpeed.node[190].veinsmobility  posx  ETV
vector 1333  Scenario2_SlowSpeed.node[190].veinsmobility  posy  ETV
vector 1244  Scenario2_SlowSpeed.node[177].veinsmobility  acceleration  ETV
vector 1245  Scenario2_SlowSpeed.node[177].veinsmobility  co2emission  ETV
vector 1251  Scenario2_SlowSpeed.node[178].veinsmobility  acceleration  ETV
vector 1252  Scenario2_SlowSpeed.node[178].veinsmobility  co2emission  ETV
vector 1258  Scenario2_SlowSpeed.node[179].veinsmobility  acceleration  ETV
vector 1259  Scenario2_SlowSpeed.node[179].veinsmobility  co2emission  ETV
vector 1265  Scenario2_SlowSpeed.node[180].veinsmobility  acceleration  ETV
vector 1266  Scenario2_SlowSpeed.node[180].veinsmobility  co2emission  ETV
vector 1272  Scenario2_SlowSpeed.node[181].veinsmobility  acceleration  ETV
vector 1273  Scenario2_SlowSpeed.node[181].veinsmobility  co2emission  ETV
vector 1279  Scenario2_SlowSpeed.node[182].veinsmobility  acceleration  ETV
vector 1280  Scenario2_SlowSpeed.node[182].veinsmobility  co2emission  ETV
vector 1286  Scenario2_SlowSpeed.node[183].veinsmobility  acceleration  ETV
vector 1287  Scenario2_SlowSpeed.node[183].veinsmobility  co2emission  ETV
vector 1293  Scenario2_SlowSpeed.node[184].veinsmobility  acceleration  ETV
vector 1294  Scenario2_SlowSpeed.node[184].veinsmobility  co2emission  ETV
vector 1300  Scenario2_SlowSpeed.node[185].veinsmobility  acceleration  ETV
vector 1301  Scenario2_SlowSpeed.node[185].veinsmobility  co2emission  ETV
vector 1306  Scenario2_SlowSpeed.node[186].veinsmobility  speed  ETV
vector 1313  Scenario2_SlowSpeed.node[187].veinsmobility  speed  ETV
vector 1339  Scenario2_SlowSpeed.node[191].veinsmobility  posx  ETV
vector 1340  Scenario2_SlowSpeed.node[191].veinsmobility  posy  ETV
vector 1346  Scenario2_SlowSpeed.node[192].veinsmobility  posx  ETV
vector 1347  Scenario2_SlowSpeed.node[192].veinsmobility  posy  ETV
vector 1353  Scenario2_SlowSpeed.node[193].veinsmobility  posx  ETV
vector 1354  Scenario2_SlowSpeed.node[193].veinsmobility  posy  ETV
vector 1360  Scenario2_SlowSpeed.node[194].veinsmobility  posx  ETV
vector 1361  Scenario2_SlowSpeed.node[194].veinsmobility  posy  ETV
vector 1367  Scenario2_SlowSpeed.node[195].veinsmobility  posx  ETV
vector 1368  Scenario2_SlowSpeed.node[195].veinsmobility  posy  ETV
vector 1374  Scenario2_SlowSpeed.node[196].veinsmobility  posx  ETV
vector 1375  Scenario2_SlowSpeed.node[196].veinsmobility  posy  ETV
vector 1307  Scenario2_SlowSpeed.node[186].veinsmobility  acceleration  ETV
vector 1308  Scenario2_SlowSpeed.node[186].veinsmobility  co2emission  ETV
vector 1314  Scenario2_SlowSpeed.node[187].veinsmobility  acceleration  ETV
vector 1315  Scenario2_SlowSpeed.node[187].veinsmobility  co2emission  ETV
vector 1320  Scenario2_SlowSpeed.node[188].veinsmobility  speed  ETV
vector 1327  Scenario2_SlowSpeed.node[189].veinsmobility  speed  ETV
vector 1334  Scenario2_SlowSpeed.node[190].veinsmobility  speed  ETV
vector 1381  Scenario2_SlowSpeed.node[197].veinsmobility  posx  ETV
vector 1382  Scenario2_SlowSpeed.node[197].veinsmobility  posy  ETV
vector 1388  Scenario2_SlowSpeed.node[198].veinsmobility  posx  ETV
vector 1389  Scenario2_SlowSpeed.node[198].veinsmobility  posy  ETV
vector 1395  Scenario2_SlowSpeed.node[199].veinsmobility  posx  ETV
vector 1396  Scenario2_SlowSpeed.node[199].veinsmobility  posy  ETV
vector 1402  Scenario2_SlowSpeed.node[200].veinsmobility  posx  ETV
vector 1403  Scenario2_SlowSpeed.node[200].veinsmobility  posy  ETV
vector 1321  Scenario2_SlowSpeed.node[188].veinsmobility  acceleration  ETV
vector 1322  Scenario2_SlowSpeed.node[188].veinsmobility  co2emission  ETV
vector 1328  Scenario2_SlowSpeed.node[189].veinsmobility  acceleration  ETV
vector 1329  Scenario2_SlowSpeed.node[189].veinsmobility  co2emission  ETV
vector 1335  Scenario2_SlowSpeed.node[190].veinsmobility  acceleration  ETV
vector 1336  Scenario2_SlowSpeed.node[190].veinsmobility  co2emission  ETV
vector 1341  Scenario2_SlowSpeed.node[191].veinsmobility  speed  ETV
vector 1348  Scenario2_SlowSpeed.node[192].veinsmobility  speed  ETV
vector 1355  Scenario2_SlowSpeed.node[193].veinsmobility  speed  ETV
vector 1362  Scenario2_SlowSpeed.node[194].veinsmobility  speed  ETV
vector 1369  Scenario2_SlowSpeed.node[195].veinsmobility  speed  ETV
vector 1376  Scenario2_SlowSpeed.node[196].veinsmobility  speed  ETV
vector 1409  Scenario2_SlowSpeed.node[201].veinsmobility  posx  ETV
vector 1410  Scenario2_SlowSpeed.node[201].veinsmobility  posy  ETV
vector 1416  Scenario2_SlowSpeed.node[202].veinsmobility  posx  ETV
vector 1417  Scenario2_SlowSpeed.node[202].veinsmobility  posy  ETV
vector 1423  Scenario2_SlowSpeed.node[203].veinsmobility  posx  ETV
vector 1424  Scenario2_SlowSpeed.node[203].veinsmobility  posy  ETV
vector 1430  Scenario2_SlowSpeed.node[204].veinsmobility  posx  ETV
vector 1431  Scenario2_SlowSpeed.node[204].veinsmobility  posy  ETV
vector 1437  Scenario2_SlowSpeed.node[205].veinsmobility  posx  ETV
vector 1438  Scenario2_SlowSpeed.node[205].veinsmobility  posy  ETV
vector 1342  Scenario2_SlowSpeed.node[191].veinsmobility  acceleration  ETV
vector 1343  Scenario2_SlowSpeed.node[191].veinsmobility  co2emission  ETV
vector 1349  Scenario2_SlowSpeed.node[192].veinsmobility  acceleration  ETV
vector 1350  Scenario2_SlowSpeed.node[192].veinsmobility  co2emission  ETV
vector 1356  Scenario2_SlowSpeed.node[193].veinsmobility  acceleration  ETV
vector 1357  Scenario2_SlowSpeed.node[193].veinsmobility  co2emission  ETV
vector 1363  Scenario2_SlowSpeed.node[194].veinsmobility  acceleration  ETV
vector 1364  Scenario2_SlowSpeed.node[194].veinsmobility  co2emission  ETV
vector 1370  Scenario2_SlowSpeed.node[195].veinsmobility  acceleration  ETV
vector 1371  Scenario2_SlowSpeed.node[195].veinsmobility  co2emission  ETV
vector 1377  Scenario2_SlowSpeed.node[196].veinsmobility  acceleration  ETV
vector 1378  Scenario2_SlowSpeed.node[196].veinsmobility  co2emission  ETV
vector 1383  Scenario2_SlowSpeed.node[197].veinsmobility  speed  ETV
vector 1390  Scenario2_SlowSpeed.node[198].veinsmobility  speed  ETV
vector 1397  Scenario2_SlowSpeed.node[199].veinsmobility  speed  ETV
vector 1404  Scenario2_SlowSpeed.node[200].veinsmobility  speed  ETV
vector 1444  Scenario2_SlowSpeed.node[206].veinsmobility  posx  ETV
vector 1445  Scenario2_SlowSpeed.node[206].veinsmobility  posy  ETV
vector 1451  Scenario2_SlowSpeed.node[207].veinsmobility  posx  ETV
vector 1452  Scenario2_SlowSpeed.node[207].veinsmobility  posy  ETV
vector 1458  Scenario2_SlowSpeed.node[208].veinsmobility  posx  ETV
vector 1459  Scenario2_SlowSpeed.node[208].veinsmobility  posy  ETV
vector 1465  Scenario2_SlowSpeed.node[209].veinsmobility  posx  ETV
vector 1466  Scenario2_SlowSpeed.node[209].veinsmobility  posy  ETV
vector 1472  Scenario2_SlowSpeed.node[210].veinsmobility  posx  ETV
vector 1473  Scenario2_SlowSpeed.node[210].veinsmobility  posy  ETV
vector 1479  Scenario2_SlowSpeed.node[211].veinsmobility  posx  ETV
vector 1480  Scenario2_SlowSpeed.node[211].veinsmobility  posy  ETV
vector 1486  Scenario2_SlowSpeed.node[212].veinsmobility  posx  ETV
vector 1487  Scenario2_SlowSpeed.node[212].veinsmobility  posy  ETV
vector 1493  Scenario2_SlowSpeed.node[213].veinsmobility  posx  ETV
vector 1494  Scenario2_SlowSpeed.node[213].veinsmobility  posy  ETV
vector 1384  Scenario2_SlowSpeed.node[197].veinsmobility  acceleration  ETV
vector 1385  Scenario2_SlowSpeed.node[197].veinsmobility  co2emission  ETV
vector 1391  Scenario2_SlowSpeed.node[198].veinsmobility  acceleration  ETV
vector 1392  Scenario2_SlowSpeed.node[198].veinsmobility  co2emission  ETV
vector 1398  Scenario2_SlowSpeed.node[199].veinsmobility  acceleration  ETV
vector 1399  Scenario2_SlowSpeed.node[199].veinsmobility  co2emission  ETV
vector 1405  Scenario2_SlowSpeed.node[200].veinsmobility  acceleration  ETV
vector 1406  Scenario2_SlowSpeed.node[200].veinsmobility  co2emission  ETV
vector 1411  Scenario2_SlowSpeed.node[201].veinsmobility  speed  ETV
vector 1418  Scenario2_SlowSpeed.node[202].veinsmobility  speed  ETV
vector 1425  Scenario2_SlowSpeed.node[203].veinsmobility  speed  ETV
vector 1432  Scenario2_SlowSpeed.node[204].veinsmobility  speed  ETV
vector 1439  Scenario2_SlowSpeed.node[205].veinsmobility  speed  ETV
vector 1500  Scenario2_SlowSpeed.node[214].veinsmobility  posx  ETV
vector 1501  Scenario2_SlowSpeed.node[214].veinsmobility  posy  ETV
vector 1412  Scenario2_SlowSpeed.node[201].veinsmobility  acceleration  ETV
vector 1413  Scenario2_SlowSpeed.node[201].veinsmobility  co2emission  ETV
vector 1419  Scenario2_SlowSpeed.node[202].veinsmobility  acceleration  ETV
vector 1420  Scenario2_SlowSpeed.node[202].veinsmobility  co2emission  ETV
vector 1426  Scenario2_SlowSpeed.node[203].veinsmobility  acceleration  ETV
vector 1427  Scenario2_SlowSpeed.node[203].veinsmobility  co2emission  ETV
vector 1433  Scenario2_SlowSpeed.node[204].veinsmobility  acceleration  ETV
vector 1434  Scenario2_SlowSpeed.node[204].veinsmobility  co2emission  ETV
vector 1440  Scenario2_SlowSpeed.node[205].veinsmobility  acceleration  ETV
vector 1441  Scenario2_SlowSpeed.node[205].veinsmobility  co2emission  ETV
vector 1446  Scenario2_SlowSpeed.node[206].veinsmobility  speed  ETV
vector 1453  Scenario2_SlowSpeed.node[207].veinsmobility  speed  ETV
vector 1460  Scenario2_SlowSpeed.node[208].veinsmobility  speed  ETV
vector 1467  Scenario2_SlowSpeed.node[209].veinsmobility  speed  ETV
vector 1474  Scenario2_SlowSpeed.node[210].veinsmobility  speed  ETV
vector 1481  Scenario2_SlowSpeed.node[211].veinsmobility  speed  ETV
vector 1488  Scenario2_SlowSpeed.node[212].veinsmobility  speed  ETV
vector 1495  Scenario2_SlowSpeed.node[213].veinsmobility  speed  ETV
vector 1507  Scenario2_SlowSpeed.node[215].veinsmobility  posx  ETV
vector 1508  Scenario2_SlowSpeed.node[215].veinsmobility  posy  ETV
vector 1514  Scenario2_SlowSpeed.node[216].veinsmobility  posx  ETV
vector 1515  Scenario2_SlowSpeed.node[216].veinsmobility  posy  ETV
vector 1521  Scenario2_SlowSpeed.node[217].veinsmobility  posx  ETV
vector 1522  Scenario2_SlowSpeed.node[217].veinsmobility  posy  ETV
vector 1447  Scenario2_SlowSpeed.node[206].veinsmobility  acceleration  ETV
vector 1448  Scenario2_SlowSpeed.node[206].veinsmobility  co2emission  ETV
vector 1454  Scenario2_SlowSpeed.node[207].veinsmobility  acceleration  ETV
vector 1455  Scenario2_SlowSpeed.node[207].veinsmobility  co2emission  ETV
vector 1461  Scenario2_SlowSpeed.node[208].veinsmobility  acceleration  ETV
vector 1462  Scenario2_SlowSpeed.node[208].veinsmobility  co2emission  ETV
vector 1468  Scenario2_SlowSpeed.node[209].veinsmobility  acceleration  ETV
vector 1469  Scenario2_SlowSpeed.node[209].veinsmobility  co2emission  ETV
vector 1475  Scenario2_SlowSpeed.node[210].veinsmobility  acceleration  ETV
vector 1476  Scenario2_SlowSpeed.node[210].veinsmobility  co2emission  ETV
vector 1482  Scenario2_SlowSpeed.node[211].veinsmobility  acceleration  ETV
vector 1483  Scenario2_SlowSpeed.node[211].veinsmobility  co2emission  ETV
vector 1489  Scenario2_SlowSpeed.node[212].veinsmobility  acceleration  ETV
vector 1490  Scenario2_SlowSpeed.node[212].veinsmobility  co2emission  ETV
vector 1496  Scenario2_SlowSpeed.node[213].veinsmobility  acceleration  ETV
vector 1497  Scenario2_SlowSpeed.node[213].veinsmobility  co2emission  ETV
vector 1502  Scenario2_SlowSpeed.node[214].veinsmobility  speed  ETV
vector 1503  Scenario2_SlowSpeed.node[214].veinsmobility  acceleration  ETV
vector 1504  Scenario2_SlowSpeed.node[214].veinsmobility  co2emission  ETV
vector 1509  Scenario2_SlowSpeed.node[215].veinsmobility  speed  ETV
vector 1516  Scenario2_SlowSpeed.node[216].veinsmobility  speed  ETV
vector 1523  Scenario2_SlowSpeed.node[217].veinsmobility  speed  ETV
vector 1528  Scenario2_SlowSpeed.node[218].veinsmobility  posx  ETV
vector 1529  Scenario2_SlowSpeed.node[218].veinsmobility  posy  ETV
vector 1535  Scenario2_SlowSpeed.node[219].veinsmobility  posx  ETV
vector 1536  Scenario2_SlowSpeed.node[219].veinsmobility  posy  ETV
vector 1542  Scenario2_SlowSpeed.node[220].veinsmobility  posx  ETV
vector 1543  Scenario2_SlowSpeed.node[220].veinsmobility  posy  ETV
vector 1510  Scenario2_SlowSpeed.node[215].veinsmobility  acceleration  ETV
vector 1511  Scenario2_SlowSpeed.node[215].veinsmobility  co2emission  ETV
vector 1517  Scenario2_SlowSpeed.node[216].veinsmobility  acceleration  ETV
vector 1518  Scenario2_SlowSpeed.node[216].veinsmobility  co2emission  ETV
vector 1524  Scenario2_SlowSpeed.node[217].veinsmobility  acceleration  ETV
vector 1525  Scenario2_SlowSpeed.node[217].veinsmobility  co2emission  ETV
vector 1549  Scenario2_SlowSpeed.node[221].veinsmobility  posx  ETV
vector 1550  Scenario2_SlowSpeed.node[221].veinsmobility  posy  ETV
vector 1530  Scenario2_SlowSpeed.node[218].veinsmobility  speed  ETV
vector 1537  Scenario2_SlowSpeed.node[219].veinsmobility  speed  ETV
vector 1544  Scenario2_SlowSpeed.node[220].veinsmobility  speed  ETV
vector 1556  Scenario2_SlowSpeed.node[222].veinsmobility  posx  ETV
vector 1557  Scenario2_SlowSpeed.node[222].veinsmobility  posy  ETV
vector 1563  Scenario2_SlowSpeed.node[223].veinsmobility  posx  ETV
vector 1564  Scenario2_SlowSpeed.node[223].veinsmobility  posy  ETV
[...]
1531	1610875 914 45273566 116979645 35 60 26 -0.13723579919466 1.4391312803386 3.8078681999356 4.0886591906055
1530	1611789 894 42768708 116979645 34 60 27 4.1029436217477 7.9818501247629 203.74438487727 1559.6842679676
1529	1612683 927 40083429 116979645 33 60 28 28.694287837531 222.10154335612 3275.7938028655 488585.86025246
1528	1613610 678 40083429 116979645 33 60 28 516.75 520.05 14548.2 7558970.31
1819	1614288 34 116979645 116979645 60 60 1 1.2617301842183 1.2617301842183 1.2617301842183 1.5919630577676
1818	1614322 37 116979645 116979645 60 60 1 -0.028879299950528 -0.028879299950528 -0.028879299950528 0.00083401396563258
1817	1614359 68 113813342 116979645 59 60 2 3.5735053343019 3.6023846342524 7.1758899685543 25.747115427382
1816	1614427 102 110645982 116979645 58 60 3 28.271074511139 30.985851892646 87.528000914923 2558.6303255417
1815	1614529 75 110645982 116979645 58 60 3 513.45 513.45 1540.35 790892.7075
1830	1614604 34 116979645 116979645 60 60 1 28.652939694611 28.652939694611 28.652939694611 820.99095314303
1829	1614638 25 116979645 116979645 60 60 1 516.75 516.75 516.75 267030.5625
1837	1614663 34 116979645 116979645 60 60 1 28.470390807098 28.470390807098 28.470390807098 810.5631527089
1836	1614697 25 116979645 116979645 60 60 1 513.45 513.45 513.45 263630.9025
1539	1614722 772 45273566 116979645 35 60 26 0.973 5.5926346333021 41.588660709333 93.169014179425
1538	1615494 918 45273566 116979645 35 60 26 -1.2975331204092 2.1063270979093 -3.1998903716818 15.584842485433
1537	1616412 898 42768708 116979645 34 60 27 0.67545539597567 7.9960539912386 166.43701594233 1202.8049708037
1536	1617310 928 40083429 116979645 33 60 28 28.434812376214 194.60727590959 3258.8715699069 471696.38020094
1535	1618238 678 40083429 116979645 33 60 28 513.45 516.75 14455.8 7463257.11
1553	1618916 751 47833991 116979645 36 60 25 0.973 5.2670395936453 41.916592733703 95.718831083069
1552	1619667 880 47833991 116979645 36 60 25 -1.3196045372723 1.9746456040609 -1.1621280957445 17.572446391431
1551	1620547 861 45273566 116979645 35 60 26 1.1233418559845 7.9896079159458 163.5210081238 1170.8490553469
1550	1621408 873 42768708 116979645 34 60 27 27.6 189.37092279435 2911.2706958776 398203.50101781
1549	1622281 654 42768708 116979645 34 60 27 513.45 516.75 13945.65 7203025.8675
1560	1622935 787 50409327 116979645 37 60 24 0.973 4.1796175524264 43.305666433686 91.037369832861
1559	1623722 852 50409327 116979645 37 60 24 -0.75560036432335 1.6222202832097 3.8971057898841 6.68957397689
1558	1624574 829 47833991 116979645 36 60 25 4.0486199408783 7.9995868318225 185.26178246451 1404.8619745242
1557	1625403 859 45273566 116979645 35 60 26 28.681997266265 203.65422287391 2780.8709256874 378961.29266898
1556	1626262 630 45273566 116979645 35 60 26 513.45 520.05 13485 6994225.125
1574	1626892 761 53010641 116979645 38 60 23 1.3933126448726 3.4349887523801 42.54459754249 87.299606613566
1573	1627653 806 53010641 116979645 38 60 23 -0.075560863476713 1.8313204539334 5.4174650894592 6.6920046060894
1572	1628459 795 50409327 116979645 37 60 24 2.5789364037176 7.9964014931768 175.85989154261 1331.828882901
1571	1629254 830 47833991 116979645 36 60 25 27.624944126717 192.01500341328 2494.7007402928 319656.39554947
1570	1630084 606 47833991 116979645 36 60 25 516.75 520.05 12984.75 6744192.8625
1581	1630690 704 53010641 116979645 38 60 23 0.973 4.7712561845642 40.047739013358 94.026370488655
1580	1631394 803 53010641 116979645 38 60 23 -1.3312501498476 2.0882229148387 -0.23012970421614 17.23585473791
1579	1632197 797 50409327 116979645 37 60 24 2.0169032476207 7.9921016161819 158.0219860993 1140.0842679949
1578	1632994 807 47833991 116979645 36 60 25 27.6 182.67007089243 2532.3577798711 325899.81262178
1577	1633801 606 47833991 116979645 36 60 25 513.45 516.75 12902.25 6658765.7625
1602	1634407 679 58302751 116979645 40 60 21 0.973 4.6225184457302 41.666564406469 104.65859485772
1601	1635086 742 58302751 116979645 40 60 21 -1.2147767118637 2.0400197769876 5.3352403213719 12.737119791837
1600	1635828 731 55643596 116979645 39 60 22 2.6137617480934 7.9989400875825 161.2396085201 1220.2603020817
1599	1636559 763 53010641 116979645 38 60 23 27.674483005159 177.90664311633 2191.700445241 264792.68536034
1598	1637322 558 53010641 116979645 38 60 23 516.75 520.05 11891.85 6148545.8175
678	1637880 1632 2883172 116979645 9 60 52 0.973 4.6535251672144 91.045349158458 182.18184484915
677	1639512 1770 2883172 116979645 9 60 52 -2.6845724140177 1.9904540126794 5.0551536820512 18.809447350101
676	1641282 1686 2347580 116979645 8 60 53 2.8889755843128 7.9905600157124 399.46545499379 3064.5856456356
675	1642968 1234 1871861 116979645 7 60 54 516.75 520.05 28076.1 14597565.255
674	1644202 1714 1871861 116979645 7 60 54 633.29939361219 1022.2497393385 45407.725890922 38956378.960636
720	1645916 1628 3473356 116979645 10 60 51 1.2927121137497 4.3018867535669 85.863071226398 157.89588893366
719	1647544 1739 3473356 116979645 10 60 51 -0.12757810949581 1.9671037692274 5.3434974163485 8.1457024730546
718	1649283 1655 2883172 116979645 9 60 52 2.6314719451947 7.9977919364255 400.25412622116 3121.5127379176
717	1650938 1213 2347580 116979645 8 60 53 516.75 516.75 27387.75 14152619.8125
716	1652151 1682 2347580 116979645 8 60 53 633.24200006076 1022.374272896 44437.376430931 38017143.278597
1315	1653833 1158 24164855 116979645 26 60 35 1.3377536560005 4.6333749417953 61.667107016273 128.41107526288
1314	1654991 1242 24164855 116979645 26 60 35 -0.10389619516907 1.9747542788717 5.554275687098 10.473263069039
1313	1656233 1190 22270613 116979645 25 60 36 2.3436994820428 7.9991504234332 274.85463238767 2142.3475308313
1312	1657423 894 20441825 116979645 24 60 37 516.75 516.75 19119.75 9880130.8125
1311	1658317 1220 20441825 116979645 24 60 37 758.8345278415 1022.3741771284 33313.71044395 30247959.057261
1378	1659537 1089 28264324 116979645 28 60 33 1.3506645371567 4.3460370661688 58.172097260954 119.64237247272
1377	1660626 1172 28264324 116979645 28 60 33 -0.097186327103991 1.8418329735985 5.1072473805603 8.7995960808009
1376	1661798 1122 26177594 116979645 27 60 34 2.8134975986187 7.9955261904281 260.03336687994 2025.233212356
1375	1662920 846 24164855 116979645 26 60 35 516.75 516.75 18086.25 9346069.6875
1374	1663766 1158 24164855 116979645 26 60 35 773.28871069614 1022.2530401932 31744.498995832 29005978.437465
1441	1664924 1027 32825683 116979645 30 60 31 1.3946560733444 4.8531438637756 54.779443207407 113.59712408252
1440	1665951 1101 32825683 116979645 30 60 31 -0.0744210230303 1.9680130584724 4.6924065345337 8.1773364831871
1439	1667052 1055 30461308 116979645 29 60 32 3.2469630251106 7.9933529214142 245.35058373355 1909.4219966929
1438	1668107 798 28264324 116979645 28 60 33 516.75 516.75 17052.75 8812008.5625
1437	1668905 1092 28264324 116979645 28 60 33 787.09133475484 1022.0358551189 30125.935770844 27681928.178158
1504	1669997 962 37642277 116979645 32 60 29 1.3358839088372 5.2301078470265 51.274563609668 111.50628884333
1503	1670959 1028 37642277 116979645 32 60 29 -0.10502778804395 2.1229405618925 4.099710371431 8.4172437371614
1502	1671987 995 35208652 116979645 31 60 30 3.7791641682693 7.9978283363092 231.81464370645 1811.4222913403
1501	1672982 750 32825683 116979645 30 60 31 516.75 516.75 16019.25 8277947.4375
1500	1673732 1025 32825683 116979645 30 60 31 800.61358506122 1021.7208381607 28478.569731747 26311734.10547
1525	1674757 929 40083429 116979645 33 60 28 1.3283204128786 4.9285418380234 51.000766239353 113.22034015097
1524	1675686 998 40083429 116979645 33 60 28 -0.10906240414828 2.0528467223593 5.6589411446241 10.919354811968
1523	1676684 957 37642277 116979645 32 60 29 2.2479602316652 7.9989772554557 218.93368046665 1697.1944958209
1522	1677641 726 35208652 116979645 31 60 30 516.75 516.75 15502.5 8010916.875
1521	1678367 975 35208652 116979645 31 60 30 814.69048169759 1022.4 27844.555203152 25975723.80493
1546	1679342 862 45273566 116979645 35 60 26 1.4410228326844 4.4039321882454 47.517158767239 104.41533335525
1545	1680204 919 45273566 116979645 35 60 26 -0.050805769851431 1.9034834017511 5.2135522358368 9.2530859524943
1544	1681123 893 42768708 116979645 34 60 27 2.7068462070435 7.979859879103 204.25356199365 1582.5217789901
1543	1682016 678 40083429 116979645 33 60 28 516.75 516.75 14469 7476855.75
1542	1682694 927 40083429 116979645 33 60 28 829.32764006336 1022.3251378981 26175.312797502 24576122.165577
1567	1683621 794 50409327 116979645 37 60 24 1.3502741485504 4.8096964690341 44.445267049999 100.09846814043
1566	1684415 850 50409327 116979645 37 60 24 -0.097279233681038 2.1440804687957 5.0258468613736 9.349908659224
1565	1685265 830 47833991 116979645 36 60 25 2.9468768290492 7.9929025573353 189.6361854168 1469.2025671436
1564	1686095 630 45273566 116979645 35 60 26 516.75 516.75 13435.5 6942794.625
1563	1686725 863 45273566 116979645 35 60 26 843.18925219274 1022.1567317041 24463.413677553 23103042.95651
1588	1687588 730 55643596 116979645 39 60 22 1.368436077711 5.5161334051186 40.642181844207 94.736740360277
1587	1688318 784 55643596 116979645 39 60 22 -0.087739988325629 2.1721226904495 4.303245097681 8.3866903744427
1586	1689102 763 53010641 116979645 38 60 23 3.5861892887036 7.9953750823624 175.29474391256 1358.8994077687
1585	1689865 582 50409327 116979645 37 60 24 516.75 516.75 12402 6408733.5
1584	1690447 797 50409327 116979645 37 60 24 857.06139048571 1021.8686589944 22727.373077508 21589354.391972
1609	1691244 664 61006618 116979645 41 60 20 1.3456831451795 5.1781565733529 37.363805972284 89.495171943266
1608	1691908 711 61006618 116979645 41 60 20 -0.10011067064712 2.1079992938135 4.0482825762574 8.1853848008005
1607	1692619 697 58302751 116979645 40 60 21 3.8430550526473 7.995051635541 160.51003851377 1245.7509654688
1606	1693316 534 55643596 116979645 39 60 22 516.75 516.75 11368.5 5874672.375
1605	1693850 730 55643596 116979645 39 60 22 871.35069478281 1021.3213983099 20972.090238792 20043574.333826
1630	1694580 631 63714203 116979645 42 60 19 1.352881929396 4.7035873041182 37.076197985538 91.258545283596
1629	1695211 673 63714203 116979645 42 60 19 -0.095872051934712 2.063338283808 5.5083795603077 10.670972296277
1628	1695884 662 61006618 116979645 41 60 20 2.413962769153 7.9979035524908 148.05058305169 1134.6919523117
1627	1696546 510 58302751 116979645 40 60 21 516.75 516.75 10851.75 5607641.8125
1626	1697056 694 58302751 116979645 40 60 21 885.15068257121 1022.374508611 20209.777725704 19491779.857682
797	1697750 1564 4825166 116979645 12 60 49 1.3659850042094 4.7257166323089 82.60738155725 155.90557731123
796	1699314 1679 4825166 116979645 12 60 49 -0.08917949794326 1.9689993067295 4.8692074739757 8.1990915221785
795	1700993 1594 4137018 116979645 11 60 50 3.0832945614717 7.9981428708136 387.57314820509 3036.6134100024
794	1702587 1171 3473356 116979645 10 60 51 516.75 516.75 26354.25 13618558.6875
793	1703758 1625 3473356 116979645 10 60 51 645.18727724189 1022.1568547006 42983.4971206 36908036.253262
1651	1705383 567 69241393 116979645 44 60 17 1.3160847619555 4.8397165641474 33.571437478332 82.838857137915
1650	1705950 600 69241393 116979645 44 60 17 -0.11541153720347 2.0580967725348 5.0620357823754 9.3820157486644
1649	1706550 598 66474494 116979645 43 60 18 2.8286224088715 7.993497130468 133.46665800736 1021.204271946
1648	1707148 462 63714203 116979645 42 60 19 516.75 516.75 9818.25 5073580.6875
1647	1707610 631 63714203 116979645 42 60 19 899.47922166883 1022.2511740252 18406.740449832 17863092.276983
1672	1708241 499 74874828 116979645 46 60 15 1.4089435992299 4.2513574275189 30.267530499618 74.393745605221
1671	1708740 528 74874828 116979645 46 60 15 -0.066997385302093 1.8596300453087 4.8484131949391 7.8378568476321
1670	1709268 531 72055293 116979645 45 60 16 3.1421670057652 7.9905802007043 117.83122093994 895.61197331203
1669	1709799 414 69241393 116979645 44 60 17 516.75 516.75 8784.75 4539519.5625
1668	1710213 563 69241393 116979645 44 60 17 914.719177111 1022.0341557703 16589.05329592 16209629.630565
1693	1710776 435 80591473 116979645 48 60 13 1.4699081643934 5.1391678794012 26.660592854199 70.049539028887
1692	1711211 462 80591473 116979645 48 60 13 -0.034778809931595 1.9862680430664 4.1981210479779 7.4003510366799
1691	1711673 466 77731003 116979645 47 60 14 3.761397941966 7.9757891321974 104.20784060717 795.36984844339
1690	1712139 366 74874828 116979645 46 60 15 516.75 516.75 7751.25 4005458.4375
1689	1712505 497 74874828 116979645 46 60 15 928.02030897448 1021.714477981 14721.5582578 14462998.40993
1714	1713002 368 86406716 116979645 50 60 11 1.3990455709483 5.0623566652151 23.438294062997 67.112501861758
1713	1713370 396 86406716 116979645 50 60 11 -0.072106652455404 2.0655698409374 3.9465905718298 7.6866913988787
1712	1713766 401 83489489 116979645 49 60 12 4.0260105867729 7.9726011586026 89.342520053773 680.98535828851
1711	1714167 318 80591473 116979645 48 60 13 516.75 516.75 6717.75 3471397.3125
1710	1714485 433 80591473 116979645 48 60 13 942.53822464774 1021.3508382545 12842.375781842 12695910.315189
1721	1714918 335 89354599 116979645 51 60 10 1.3714073920576 4.2817428420183 23.044136167596 67.620583122075
1720	1715253 356 89354599 116979645 51 60 10 -0.086347132627853 2.2386231102981 5.3504008698418 10.145520617751
1719	1715609 369 86406716 116979645 50 60 11 2.5308302897865 7.9675782922562 77.253992650879 574.64267690431
1718	1715978 294 83489489 116979645 49 60 12 516.75 516.75 6201 3204366.75
1717	1716272 398 83489489 116979645 49 60 12 956.20696977156 1022.374318342 11953.900378901 11914208.399584
1742	1716670 265 95312834 116979645 53 60 8 1.443684424918 4.5643913428143 19.564752920137 60.046039271099
1741	1716935 284 95312834 116979645 53 60 8 -0.048595910265576 1.9453869137843 4.9641518412467 8.8283699503494
1740	1717219 302 92317426 116979645 52 60 9 2.9126975969708 7.952526715023 62.043528905134 454.02876695494
1739	1717521 246 89354599 116979645 51 60 10 516.75 516.75 5167.5 2670305.625
1738	1717767 336 89354599 116979645 51 60 10 970.79575954708 1022.1521930516 10023.950834844 10051164.990753
1763	1718103 203 101367124 116979645 55 60 6 1.4981084777848 5.1611457167486 16.200522167199 55.680594274112
1762	1718306 212 101367124 116979645 55 60 6 -0.021122020371258 2.0232608730393 4.4620626178859 8.2762581956994
1761	1718518 235 98320217 116979645 54 60 7 3.4851781942639 7.9488925908343 48.212323825948 350.24431149358
1760	1718753 198 95312834 116979645 53 60 8 516.75 516.75 4134 2136244.5
1759	1718951 270 95312834 116979645 53 60 8 984.41170049272 1021.9124959879 8063.1296734368 8128181.570176
1784	1719221 136 107538422 116979645 57 60 4 1.4976983545262 5.4185271340268 12.719267239768 50.479985692569
1783	1719357 140 107538422 116979645 57 60 4 -0.021444639787077 2.0778317531408 4.0696254404964 7.6993274712695
1782	1719497 170 104425649 116979645 56 60 5 3.8615547239218 7.9526248042053 33.205697489731 233.80850416712
1781	1719667 150 101367124 116979645 55 60 6 516.75 516.75 3100.5 1602183.375
1780	1719817 202 101367124 116979645 55 60 6 999.00009756689 1021.5503407676 6081.4013331274 6164315.9623809
1805	1720019 102 110645982 116979645 58 60 3 3.2027258744572 5.1752666637139 12.730751709568 55.987350471646
1804	1720121 101 110645982 116979645 58 60 3 1.8880755992827 1.9927504697232 5.7903238277989 11.182065594024
1803	1720222 136 107538422 116979645 57 60 4 2.1940109600276 7.9843347878265 20.378113655219 122.56644599616
1802	1720358 125 104425649 116979645 56 60 5 516.75 516.75 2583.75 1335152.8125
1801	1720483 151 104425649 116979645 56 60 5 1012.6768161246 1022.4 5096.498596908 5194928.030071
1826	1720634 34 116979645 116979645 60 60 1 3.4697538803579 3.4697538803579 3.4697538803579 12.039191990259
1825	1720668 34 116979645 116979645 60 60 1 1.9227693590289 1.9227693590289 1.9227693590289 3.6970420080204
1824	1720702 68 113813342 116979645 59 60 2 2.6719666774688 4.5947360364977 7.2667027139664 28.251005170594
1823	1720770 75 110645982 116979645 58 60 3 516.75 516.75 1550.25 801091.6875
1822	1720845 102 110645982 116979645 58 60 3 1020.5885026063 1022.3242891812 3065.2370809686 3131894.7961518
874	1720947 1500 6474925 116979645 14 60 47 1.3526508318672 4.918207323482 79.169155370624 151.67299050081
873	1722447 1627 6474925 116979645 14 60 47 -0.096071357829497 2.0827118595131 4.3978437612832 8.1219390577201
872	1724074 1529 5626539 116979645 13 60 48 3.5142798499626 7.9931438549119 373.3181239894 2927.5285324861
871	1725603 1127 4825166 116979645 12 60 49 516.75 516.75 25320.75 13084497.5625
870	1726730 1559 4825166 116979645 12 60 49 658.83983717356 1021.8886162842 41581.235117207 35890995.081427
1844	1728289 25 116979645 116979645 60 60 1 516.75 516.75 516.75 267030.5625
1843	1728314 34 116979645 116979645 60 60 1 1022.1498830365 1022.1498830365 1022.1498830365 1044790.3833915
986	1728348 1438 8629312 116979645 16 60 45 1.3433057250822 5.0747645152023 76.094373444042 147.6272761817
985	1729786 1549 8629312 116979645 16 60 45 -0.10102174291853 2.0022056185734 4.2933593018365 7.96121011398
984	1731335 1471 7508207 116979645 15 60 46 3.6742379713512 7.9989194545639 358.45650790806 2815.7679905212
983	1732806 1083 6474925 116979645 14 60 47 516.75 516.75 24287.25 12550436.4375
982	1733889 1505 6474925 116979645 14 60 47 673.66510470612 1021.5523444391 40212.416123901 34939146.255437
1028	1735394 1447 9835227 116979645 17 60 44 1.3212188124988 5.1521139933009 75.68100848143 151.87217989964
1027	1736841 1559 9835227 116979645 17 60 44 -0.11284155444475 2.0120395706035 5.7674598861254 10.932035213065
1026	1738400 1485 8629312 116979645 16 60 45 2.1613891165237 7.9981589262839 345.21623067227 2698.6797404721
1025	1739885 1107 7508207 116979645 15 60 46 516.75 516.75 23770.5 12283405.875
1024	1740992 1497 7508207 116979645 15 60 46 688.53439459109 1022.4 39834.731906005 34989404.511403
1098	1742489 1390 12475843 116979645 19 60 42 1.3100063082152 4.7180425105343 72.447356552333 144.46272171131
1097	1743879 1489 12475843 116979645 19 60 42 -0.11847667778144 2.2206596516678 5.3555884597859 10.214714650149
1096	1745368 1420 11116384 116979645 18 60 43 2.6234599548635 7.99290909976 331.59620298426 2594.0422400478
1095	1746788 1061 9835227 116979645 17 60 44 516.75 516.75 22737 11749344.75
1094	1747849 1451 9835227 116979645 17 60 44 701.59418601546 1022.3247404501 38334.874815657 33832701.148972
1147	1749300 1318 15427450 116979645 21 60 40 1.3498788587324 4.9716098684907 68.902201023075 137.26101715517
1146	1750618 1419 15427450 116979645 21 60 40 -0.097694778288714 2.0492382235313 4.9228850238128 9.0949692728092
1145	1752037 1356 13880912 116979645 20 60 41 2.9961562340673 7.9797279175348 316.67540014941 2477.8213385265
1144	1753393 1014 12475843 116979645 19 60 42 516.75 516.75 21703.5 11215283.625
1143	1754407 1386 12475843 116979645 19 60 42 716.40718171707 1022.1561316776 36881.80921124 32764075.355701
1217	1755793 1260 18650214 116979645 23 60 38 1.3251742360691 4.7886933012377 65.29085281091 130.56775183251
1216	1757053 1346 18650214 116979645 23 60 38 -0.11081519684056 2.1183048893744 4.342177965269 8.1801174039476
1215	1758399 1285 17005910 116979645 22 60 39 3.5498721347115 7.9987463180046 302.46004278656 2369.0622443169
1214	1759684 966 15427450 116979645 21 60 40 516.75 516.75 20670 10681222.5
1213	1760650 1325 15427450 116979645 21 60 40 730.13023548352 1021.8799303682 35361.61017317 31587294.597366
1301	1761975 1192 22270613 116979645 25 60 36 1.2998191022041 5.2661786292565 61.759848786299 126.02394537455
1300	1763167 1276 22270613 116979645 25 60 36 -0.12383632793091 1.9602178139286 3.8636127574641 7.6174723499194
1299	1764443 1225 20441825 116979645 24 60 37 4.0273957115979 7.9996747244173 287.90881887077 2258.7632850269
1298	1765668 918 18650214 116979645 23 60 38 516.75 516.75 19636.5 10147161.375
1297	1766586 1259 18650214 116979645 23 60 38 744.4117857342 1021.3436682704 33835.424557672 30406784.507407
