file 1781394 1518291393                                         
version 2
run WithoutChSw-TrAD-1-20180210-11:45:16-24721
attr configname WithoutChSw-TrAD
attr datetime 20180210-11:45:16
attr experiment WithoutChSw-TrAD
attr inifile omnetpp.ini
attr iterationvars $0=0.5s
attr iterationvarsf 0.5s-
attr measurement $0=0.5s
attr network Scenario2_SlowSpeed
attr processid 24721
attr repetition 0
attr replication #0
attr resultdir results
attr runnumber 1
attr seedset 1
param **.coreDebug false
param **.debug false
param *.**.nic.mac1609_4.bitrate 6Mbps
param *.**.nic.mac1609_4.txPower 20mW
param *.**.nic.mac1609_4.useServiceChannel false
param *.**.nic.phy80211p.analogueModels "xmldoc(\"config.xml\")"
param *.**.nic.phy80211p.antenna "xmldoc(\"antenna.xml\", \"/root/Antenna[@id='monopole']\")"
param *.**.nic.phy80211p.collectCollisionStatistics true
param *.**.nic.phy80211p.decider "xmldoc(\"config.xml\")"
param *.**.nic.phy80211p.sensitivity -89dBm
param *.**.nic.phy80211p.thermalNoise -110dBm
param *.**.nic.phy80211p.usePropagationDelay true
param *.**.nic.phy80211p.useThermalNoise true
param *.annotations.draw true
param *.connectionManager.drawMaxIntfDist false
param *.connectionManager.maxInterfDist 2600m
param *.connectionManager.sendDirect true
param *.manager.autoShutdown true
param *.manager.host "\"localhost\""
param *.manager.launchConfig "xmldoc(\"mycross.launchd.xml\")"
param *.manager.port 9999
param *.manager.updateInterval 1s
param *.node[*].appl.TrAD true
param *.node[*].appl.TrAD_Neig 25
param *.node[*].appl.TrAD_R 366
param *.node[*].appl.TrAD_alpha 10
param *.node[*].appl.TrAD_ti 0.005
param *.node[*].appl.beaconInterval 1s
param *.node[*].appl.dataOnSch false
param *.node[*].appl.headerLength "80 bit"
param *.node[*].appl.sendBeacons true
param *.node[*].applType "\"myWaveAppLayer\""
param *.node[*].veinsmobility.x 0
param *.node[*].veinsmobility.y 0
param *.node[*].veinsmobility.z 1.895
param *.node[*].veinsmobilityType.debug true
param *.node[20].appl.Accident_start 30
param *.node[40].veinsmobility.accidentCount 1
param *.node[40].veinsmobility.accidentDuration 40s
param *.node[40].veinsmobility.accidentStart 30s
param *.obstacles.debug false
param *.playgroundSizeX 2500m
param *.playgroundSizeY 2500m
param *.playgroundSizeZ 50m
param *.rsu[*].appl.beaconInterval 0.1s
param *.rsu[*].appl.beaconUserPriority 7
param *.rsu[*].appl.dataOnSch false
param *.rsu[*].appl.dataUserPriority 5
param *.rsu[*].appl.headerLength "80 bit"
param *.rsu[*].appl.sendBeacons false
param *.rsu[*].applType "\"TraCIDemoRSU11p\""
param *.rsu[0].mobility.x 500
param *.rsu[0].mobility.y 500
param *.rsu[0].mobility.z 3

vector 1850  Scenario2_SlowSpeed.node[0].veinsmobility  posx  ETV
vector 1851  Scenario2_SlowSpeed.node[0].veinsmobility  posy  ETV
vector 1857  Scenario2_SlowSpeed.node[1].veinsmobility  posx  ETV
vector 1858  Scenario2_SlowSpeed.node[1].veinsmobility  posy  ETV
vector 1864  Scenario2_SlowSpeed.node[2].veinsmobility  posx  ETV
vector 1865  Scenario2_SlowSpeed.node[2].veinsmobility  posy  ETV
vector 1871  Scenario2_SlowSpeed.node[3].veinsmobility  posx  ETV
vector 1872  Scenario2_SlowSpeed.node[3].veinsmobility  posy  ETV
vector 1878  Scenario2_SlowSpeed.node[4].veinsmobility  posx  ETV
vector 1879  Scenario2_SlowSpeed.node[4].veinsmobility  posy  ETV
vector 1885  Scenario2_SlowSpeed.node[5].veinsmobility  posx  ETV
vector 1886  Scenario2_SlowSpeed.node[5].veinsmobility  posy  ETV
vector 1892  Scenario2_SlowSpeed.node[6].veinsmobility  posx  ETV
vector 1893  Scenario2_SlowSpeed.node[6].veinsmobility  posy  ETV
vector 1899  Scenario2_SlowSpeed.node[7].veinsmobility  posx  ETV
vector 1900  Scenario2_SlowSpeed.node[7].veinsmobility  posy  ETV
vector 1906  Scenario2_SlowSpeed.node[8].veinsmobility  posx  ETV
vector 1907  Scenario2_SlowSpeed.node[8].veinsmobility  posy  ETV
vector 1913  Scenario2_SlowSpeed.node[9].veinsmobility  posx  ETV
vector 1914  Scenario2_SlowSpeed.node[9].veinsmobility  posy  ETV
vector 1920  Scenario2_SlowSpeed.node[10].veinsmobility  posx  ETV
vector 1921  Scenario2_SlowSpeed.node[10].veinsmobility  posy  ETV
vector 1927  Scenario2_SlowSpeed.node[11].veinsmobility  posx  ETV
vector 1928  Scenario2_SlowSpeed.node[11].veinsmobility  posy  ETV
vector 1934  Scenario2_SlowSpeed.node[12].veinsmobility  posx  ETV
vector 1935  Scenario2_SlowSpeed.node[12].veinsmobility  posy  ETV
vector 1941  Scenario2_SlowSpeed.node[13].veinsmobility  posx  ETV
vector 1942  Scenario2_SlowSpeed.node[13].veinsmobility  posy  ETV
vector 1948  Scenario2_SlowSpeed.node[14].veinsmobility  posx  ETV
vector 1949  Scenario2_SlowSpeed.node[14].veinsmobility  posy  ETV
vector 1955  Scenario2_SlowSpeed.node[15].veinsmobility  posx  ETV
vector 1956  Scenario2_SlowSpeed.node[15].veinsmobility  posy  ETV
vector 1962  Scenario2_SlowSpeed.node[16].veinsmobility  posx  ETV
vector 1963  Scenario2_SlowSpeed.node[16].veinsmobility  posy  ETV
vector 1969  Scenario2_SlowSpeed.node[17].veinsmobility  posx  ETV
vector 1970  Scenario2_SlowSpeed.node[17].veinsmobility  posy  ETV
vector 1976  Scenario2_SlowSpeed.node[18].veinsmobility  posx  ETV
vector 1977  Scenario2_SlowSpeed.node[18].veinsmobility  posy  ETV
vector 1983  Scenario2_SlowSpeed.node[19].veinsmobility  posx  ETV
vector 1984  Scenario2_SlowSpeed.node[19].veinsmobility  posy  ETV
vector 1990  Scenario2_SlowSpeed.node[20].veinsmobility  posx  ETV
vector 1991  Scenario2_SlowSpeed.node[20].veinsmobility  posy  ETV
vector 1997  Scenario2_SlowSpeed.node[21].veinsmobility  posx  ETV
vector 1998  Scenario2_SlowSpeed.node[21].veinsmobility  posy  ETV
vector 2004  Scenario2_SlowSpeed.node[22].veinsmobility  posx  ETV
vector 2005  Scenario2_SlowSpeed.node[22].veinsmobility  posy  ETV
vector 2011  Scenario2_SlowSpeed.node[23].veinsmobility  posx  ETV
vector 2012  Scenario2_SlowSpeed.node[23].veinsmobility  posy  ETV
vector 2018  Scenario2_SlowSpeed.node[24].veinsmobility  posx  ETV
vector 2019  Scenario2_SlowSpeed.node[24].veinsmobility  posy  ETV
vector 2025  Scenario2_SlowSpeed.node[25].veinsmobility  posx  ETV
vector 2026  Scenario2_SlowSpeed.node[25].veinsmobility  posy  ETV
vector 2032  Scenario2_SlowSpeed.node[26].veinsmobility  posx  ETV
vector 2033  Scenario2_SlowSpeed.node[26].veinsmobility  posy  ETV
vector 2039  Scenario2_SlowSpeed.node[27].veinsmobility  posx  ETV
vector 2040  Scenario2_SlowSpeed.node[27].veinsmobility  posy  ETV
vector 2046  Scenario2_SlowSpeed.node[28].veinsmobility  posx  ETV
vector 2047  Scenario2_SlowSpeed.node[28].veinsmobility  posy  ETV
vector 2053  Scenario2_SlowSpeed.node[29].veinsmobility  posx  ETV
vector 2054  Scenario2_SlowSpeed.node[29].veinsmobility  posy  ETV
vector 2060  Scenario2_SlowSpeed.node[30].veinsmobility  posx  ETV
vector 2061  Scenario2_SlowSpeed.node[30].veinsmobility  posy  ETV
vector 2067  Scenario2_SlowSpeed.node[31].veinsmobility  posx  ETV
vector 2068  Scenario2_SlowSpeed.node[31].veinsmobility  posy  ETV
vector 2074  Scenario2_SlowSpeed.node[32].veinsmobility  posx  ETV
vector 2075  Scenario2_SlowSpeed.node[32].veinsmobility  posy  ETV
vector 2081  Scenario2_SlowSpeed.node[33].veinsmobility  posx  ETV
vector 2082  Scenario2_SlowSpeed.node[33].veinsmobility  posy  ETV
vector 2088  Scenario2_SlowSpeed.node[34].veinsmobility  posx  ETV
vector 2089  Scenario2_SlowSpeed.node[34].veinsmobility  posy  ETV
vector 2095  Scenario2_SlowSpeed.node[35].veinsmobility  posx  ETV
vector 2096  Scenario2_SlowSpeed.node[35].veinsmobility  posy  ETV
vector 2102  Scenario2_SlowSpeed.node[36].veinsmobility  posx  ETV
vector 2103  Scenario2_SlowSpeed.node[36].veinsmobility  posy  ETV
vector 2109  Scenario2_SlowSpeed.node[37].veinsmobility  posx  ETV
vector 2110  Scenario2_SlowSpeed.node[37].veinsmobility  posy  ETV
vector 2116  Scenario2_SlowSpeed.node[38].veinsmobility  posx  ETV
vector 2117  Scenario2_SlowSpeed.node[38].veinsmobility  posy  ETV
vector 2123  Scenario2_SlowSpeed.node[39].veinsmobility  posx  ETV
vector 2124  Scenario2_SlowSpeed.node[39].veinsmobility  posy  ETV
vector 2130  Scenario2_SlowSpeed.node[40].veinsmobility  posx  ETV
vector 2131  Scenario2_SlowSpeed.node[40].veinsmobility  posy  ETV
vector 2137  Scenario2_SlowSpeed.node[41].veinsmobility  posx  ETV
vector 2138  Scenario2_SlowSpeed.node[41].veinsmobility  posy  ETV
vector 2144  Scenario2_SlowSpeed.node[42].veinsmobility  posx  ETV
vector 2145  Scenario2_SlowSpeed.node[42].veinsmobility  posy  ETV
vector 2151  Scenario2_SlowSpeed.node[43].veinsmobility  posx  ETV
vector 2152  Scenario2_SlowSpeed.node[43].veinsmobility  posy  ETV
vector 2158  Scenario2_SlowSpeed.node[44].veinsmobility  posx  ETV
vector 2159  Scenario2_SlowSpeed.node[44].veinsmobility  posy  ETV
vector 2165  Scenario2_SlowSpeed.node[45].veinsmobility  posx  ETV
vector 2166  Scenario2_SlowSpeed.node[45].veinsmobility  posy  ETV
vector 2172  Scenario2_SlowSpeed.node[46].veinsmobility  posx  ETV
vector 2173  Scenario2_SlowSpeed.node[46].veinsmobility  posy  ETV
vector 2179  Scenario2_SlowSpeed.node[47].veinsmobility  posx  ETV
vector 2180  Scenario2_SlowSpeed.node[47].veinsmobility  posy  ETV
vector 2186  Scenario2_SlowSpeed.node[48].veinsmobility  posx  ETV
vector 2187  Scenario2_SlowSpeed.node[48].veinsmobility  posy  ETV
vector 2193  Scenario2_SlowSpeed.node[49].veinsmobility  posx  ETV
vector 2194  Scenario2_SlowSpeed.node[49].veinsmobility  posy  ETV
vector 2200  Scenario2_SlowSpeed.node[50].veinsmobility  posx  ETV
vector 2201  Scenario2_SlowSpeed.node[50].veinsmobility  posy  ETV
vector 2207  Scenario2_SlowSpeed.node[51].veinsmobility  posx  ETV
vector 2208  Scenario2_SlowSpeed.node[51].veinsmobility  posy  ETV
vector 2214  Scenario2_SlowSpeed.node[52].veinsmobility  posx  ETV
vector 2215  Scenario2_SlowSpeed.node[52].veinsmobility  posy  ETV
vector 2221  Scenario2_SlowSpeed.node[53].veinsmobility  posx  ETV
vector 2222  Scenario2_SlowSpeed.node[53].veinsmobility  posy  ETV
vector 2228  Scenario2_SlowSpeed.node[54].veinsmobility  posx  ETV
vector 2229  Scenario2_SlowSpeed.node[54].veinsmobility  posy  ETV
vector 2235  Scenario2_SlowSpeed.node[55].veinsmobility  posx  ETV
vector 2236  Scenario2_SlowSpeed.node[55].veinsmobility  posy  ETV
vector 2242  Scenario2_SlowSpeed.node[56].veinsmobility  posx  ETV
vector 2243  Scenario2_SlowSpeed.node[56].veinsmobility  posy  ETV
vector 2249  Scenario2_SlowSpeed.node[57].veinsmobility  posx  ETV
vector 2250  Scenario2_SlowSpeed.node[57].veinsmobility  posy  ETV
vector 2256  Scenario2_SlowSpeed.node[58].veinsmobility  posx  ETV
vector 2257  Scenario2_SlowSpeed.node[58].veinsmobility  posy  ETV
vector 2263  Scenario2_SlowSpeed.node[59].veinsmobility  posx  ETV
vector 2264  Scenario2_SlowSpeed.node[59].veinsmobility  posy  ETV
vector 2270  Scenario2_SlowSpeed.node[60].veinsmobility  posx  ETV
vector 2271  Scenario2_SlowSpeed.node[60].veinsmobility  posy  ETV
vector 2277  Scenario2_SlowSpeed.node[61].veinsmobility  posx  ETV
vector 2278  Scenario2_SlowSpeed.node[61].veinsmobility  posy  ETV
vector 2284  Scenario2_SlowSpeed.node[62].veinsmobility  posx  ETV
vector 2285  Scenario2_SlowSpeed.node[62].veinsmobility  posy  ETV
vector 2291  Scenario2_SlowSpeed.node[63].veinsmobility  posx  ETV
vector 2292  Scenario2_SlowSpeed.node[63].veinsmobility  posy  ETV
vector 2298  Scenario2_SlowSpeed.node[64].veinsmobility  posx  ETV
vector 2299  Scenario2_SlowSpeed.node[64].veinsmobility  posy  ETV
vector 2305  Scenario2_SlowSpeed.node[65].veinsmobility  posx  ETV
vector 2306  Scenario2_SlowSpeed.node[65].veinsmobility  posy  ETV
vector 2312  Scenario2_SlowSpeed.node[66].veinsmobility  posx  ETV
vector 2313  Scenario2_SlowSpeed.node[66].veinsmobility  posy  ETV
vector 2319  Scenario2_SlowSpeed.node[67].veinsmobility  posx  ETV
vector 2320  Scenario2_SlowSpeed.node[67].veinsmobility  posy  ETV
vector 2326  Scenario2_SlowSpeed.node[68].veinsmobility  posx  ETV
vector 2327  Scenario2_SlowSpeed.node[68].veinsmobility  posy  ETV
vector 2333  Scenario2_SlowSpeed.node[69].veinsmobility  posx  ETV
vector 2334  Scenario2_SlowSpeed.node[69].veinsmobility  posy  ETV
vector 2340  Scenario2_SlowSpeed.node[70].veinsmobility  posx  ETV
vector 2341  Scenario2_SlowSpeed.node[70].veinsmobility  posy  ETV
vector 2347  Scenario2_SlowSpeed.node[71].veinsmobility  posx  ETV
vector 2348  Scenario2_SlowSpeed.node[71].veinsmobility  posy  ETV
vector 1852  Scenario2_SlowSpeed.node[0].veinsmobility  speed  ETV
vector 1859  Scenario2_SlowSpeed.node[1].veinsmobility  speed  ETV
vector 1866  Scenario2_SlowSpeed.node[2].veinsmobility  speed  ETV
vector 1873  Scenario2_SlowSpeed.node[3].veinsmobility  speed  ETV
vector 1880  Scenario2_SlowSpeed.node[4].veinsmobility  speed  ETV
vector 1887  Scenario2_SlowSpeed.node[5].veinsmobility  speed  ETV
vector 1894  Scenario2_SlowSpeed.node[6].veinsmobility  speed  ETV
vector 1901  Scenario2_SlowSpeed.node[7].veinsmobility  speed  ETV
vector 1908  Scenario2_SlowSpeed.node[8].veinsmobility  speed  ETV
vector 1915  Scenario2_SlowSpeed.node[9].veinsmobility  speed  ETV
vector 1922  Scenario2_SlowSpeed.node[10].veinsmobility  speed  ETV
vector 1929  Scenario2_SlowSpeed.node[11].veinsmobility  speed  ETV
vector 1936  Scenario2_SlowSpeed.node[12].veinsmobility  speed  ETV
vector 1943  Scenario2_SlowSpeed.node[13].veinsmobility  speed  ETV
vector 1950  Scenario2_SlowSpeed.node[14].veinsmobility  speed  ETV
vector 1957  Scenario2_SlowSpeed.node[15].veinsmobility  speed  ETV
vector 1964  Scenario2_SlowSpeed.node[16].veinsmobility  speed  ETV
vector 1971  Scenario2_SlowSpeed.node[17].veinsmobility  speed  ETV
vector 1978  Scenario2_SlowSpeed.node[18].veinsmobility  speed  ETV
vector 1985  Scenario2_SlowSpeed.node[19].veinsmobility  speed  ETV
vector 1992  Scenario2_SlowSpeed.node[20].veinsmobility  speed  ETV
vector 1999  Scenario2_SlowSpeed.node[21].veinsmobility  speed  ETV
vector 2006  Scenario2_SlowSpeed.node[22].veinsmobility  speed  ETV
vector 2013  Scenario2_SlowSpeed.node[23].veinsmobility  speed  ETV
vector 2020  Scenario2_SlowSpeed.node[24].veinsmobility  speed  ETV
vector 2027  Scenario2_SlowSpeed.node[25].veinsmobility  speed  ETV
vector 2034  Scenario2_SlowSpeed.node[26].veinsmobility  speed  ETV
vector 2041  Scenario2_SlowSpeed.node[27].veinsmobility  speed  ETV
vector 2048  Scenario2_SlowSpeed.node[28].veinsmobility  speed  ETV
vector 2055  Scenario2_SlowSpeed.node[29].veinsmobility  speed  ETV
vector 2062  Scenario2_SlowSpeed.node[30].veinsmobility  speed  ETV
vector 2069  Scenario2_SlowSpeed.node[31].veinsmobility  speed  ETV
vector 2076  Scenario2_SlowSpeed.node[32].veinsmobility  speed  ETV
vector 2083  Scenario2_SlowSpeed.node[33].veinsmobility  speed  ETV
vector 2090  Scenario2_SlowSpeed.node[34].veinsmobility  speed  ETV
vector 2097  Scenario2_SlowSpeed.node[35].veinsmobility  speed  ETV
vector 2104  Scenario2_SlowSpeed.node[36].veinsmobility  speed  ETV
vector 2111  Scenario2_SlowSpeed.node[37].veinsmobility  speed  ETV
vector 2118  Scenario2_SlowSpeed.node[38].veinsmobility  speed  ETV
vector 2125  Scenario2_SlowSpeed.node[39].veinsmobility  speed  ETV
vector 2132  Scenario2_SlowSpeed.node[40].veinsmobility  speed  ETV
vector 2139  Scenario2_SlowSpeed.node[41].veinsmobility  speed  ETV
vector 2146  Scenario2_SlowSpeed.node[42].veinsmobility  speed  ETV
vector 2153  Scenario2_SlowSpeed.node[43].veinsmobility  speed  ETV
vector 2160  Scenario2_SlowSpeed.node[44].veinsmobility  speed  ETV
vector 2167  Scenario2_SlowSpeed.node[45].veinsmobility  speed  ETV
vector 2174  Scenario2_SlowSpeed.node[46].veinsmobility  speed  ETV
vector 2354  Scenario2_SlowSpeed.node[72].veinsmobility  posx  ETV
vector 2355  Scenario2_SlowSpeed.node[72].veinsmobility  posy  ETV
vector 2361  Scenario2_SlowSpeed.node[73].veinsmobility  posx  ETV
vector 2362  Scenario2_SlowSpeed.node[73].veinsmobility  posy  ETV
vector 2368  Scenario2_SlowSpeed.node[74].veinsmobility  posx  ETV
vector 2369  Scenario2_SlowSpeed.node[74].veinsmobility  posy  ETV
vector 2375  Scenario2_SlowSpeed.node[75].veinsmobility  posx  ETV
vector 2376  Scenario2_SlowSpeed.node[75].veinsmobility  posy  ETV
vector 2382  Scenario2_SlowSpeed.node[76].veinsmobility  posx  ETV
vector 2383  Scenario2_SlowSpeed.node[76].veinsmobility  posy  ETV
vector 2389  Scenario2_SlowSpeed.node[77].veinsmobility  posx  ETV
vector 2390  Scenario2_SlowSpeed.node[77].veinsmobility  posy  ETV
vector 2396  Scenario2_SlowSpeed.node[78].veinsmobility  posx  ETV
vector 2397  Scenario2_SlowSpeed.node[78].veinsmobility  posy  ETV
vector 2403  Scenario2_SlowSpeed.node[79].veinsmobility  posx  ETV
vector 2404  Scenario2_SlowSpeed.node[79].veinsmobility  posy  ETV
vector 1853  Scenario2_SlowSpeed.node[0].veinsmobility  acceleration  ETV
vector 1854  Scenario2_SlowSpeed.node[0].veinsmobility  co2emission  ETV
vector 1860  Scenario2_SlowSpeed.node[1].veinsmobility  acceleration  ETV
vector 1861  Scenario2_SlowSpeed.node[1].veinsmobility  co2emission  ETV
vector 1867  Scenario2_SlowSpeed.node[2].veinsmobility  acceleration  ETV
vector 1868  Scenario2_SlowSpeed.node[2].veinsmobility  co2emission  ETV
vector 1874  Scenario2_SlowSpeed.node[3].veinsmobility  acceleration  ETV
vector 1875  Scenario2_SlowSpeed.node[3].veinsmobility  co2emission  ETV
vector 1881  Scenario2_SlowSpeed.node[4].veinsmobility  acceleration  ETV
vector 1882  Scenario2_SlowSpeed.node[4].veinsmobility  co2emission  ETV
vector 1888  Scenario2_SlowSpeed.node[5].veinsmobility  acceleration  ETV
vector 1889  Scenario2_SlowSpeed.node[5].veinsmobility  co2emission  ETV
vector 1895  Scenario2_SlowSpeed.node[6].veinsmobility  acceleration  ETV
vector 1896  Scenario2_SlowSpeed.node[6].veinsmobility  co2emission  ETV
vector 1902  Scenario2_SlowSpeed.node[7].veinsmobility  acceleration  ETV
vector 1903  Scenario2_SlowSpeed.node[7].veinsmobility  co2emission  ETV
vector 1909  Scenario2_SlowSpeed.node[8].veinsmobility  acceleration  ETV
vector 1910  Scenario2_SlowSpeed.node[8].veinsmobility  co2emission  ETV
vector 1916  Scenario2_SlowSpeed.node[9].veinsmobility  acceleration  ETV
vector 1917  Scenario2_SlowSpeed.node[9].veinsmobility  co2emission  ETV
vector 1923  Scenario2_SlowSpeed.node[10].veinsmobility  acceleration  ETV
vector 1924  Scenario2_SlowSpeed.node[10].veinsmobility  co2emission  ETV
vector 1930  Scenario2_SlowSpeed.node[11].veinsmobility  acceleration  ETV
vector 1931  Scenario2_SlowSpeed.node[11].veinsmobility  co2emission  ETV
vector 1937  Scenario2_SlowSpeed.node[12].veinsmobility  acceleration  ETV
vector 1938  Scenario2_SlowSpeed.node[12].veinsmobility  co2emission  ETV
vector 1944  Scenario2_SlowSpeed.node[13].veinsmobility  acceleration  ETV
vector 1945  Scenario2_SlowSpeed.node[13].veinsmobility  co2emission  ETV
vector 1951  Scenario2_SlowSpeed.node[14].veinsmobility  acceleration  ETV
vector 1952  Scenario2_SlowSpeed.node[14].veinsmobility  co2emission  ETV
vector 1958  Scenario2_SlowSpeed.node[15].veinsmobility  acceleration  ETV
vector 1959  Scenario2_SlowSpeed.node[15].veinsmobility  co2emission  ETV
vector 1965  Scenario2_SlowSpeed.node[16].veinsmobility  acceleration  ETV
vector 1966  Scenario2_SlowSpeed.node[16].veinsmobility  co2emission  ETV
vector 1972  Scenario2_SlowSpeed.node[17].veinsmobility  acceleration  ETV
vector 1973  Scenario2_SlowSpeed.node[17].veinsmobility  co2emission  ETV
vector 1979  Scenario2_SlowSpeed.node[18].veinsmobility  acceleration  ETV
vector 1980  Scenario2_SlowSpeed.node[18].veinsmobility  co2emission  ETV
vector 1986  Scenario2_SlowSpeed.node[19].veinsmobility  acceleration  ETV
vector 1987  Scenario2_SlowSpeed.node[19].veinsmobility  co2emission  ETV
vector 1993  Scenario2_SlowSpeed.node[20].veinsmobility  acceleration  ETV
vector 1994  Scenario2_SlowSpeed.node[20].veinsmobility  co2emission  ETV
vector 2000  Scenario2_SlowSpeed.node[21].veinsmobility  acceleration  ETV
vector 2001  Scenario2_SlowSpeed.node[21].veinsmobility  co2emission  ETV
vector 2007  Scenario2_SlowSpeed.node[22].veinsmobility  acceleration  ETV
vector 2008  Scenario2_SlowSpeed.node[22].veinsmobility  co2emission  ETV
vector 2014  Scenario2_SlowSpeed.node[23].veinsmobility  acceleration  ETV
vector 2015  Scenario2_SlowSpeed.node[23].veinsmobility  co2emission  ETV
vector 2021  Scenario2_SlowSpeed.node[24].veinsmobility  acceleration  ETV
vector 2022  Scenario2_SlowSpeed.node[24].veinsmobility  co2emission  ETV
vector 2028  Scenario2_SlowSpeed.node[25].veinsmobility  acceleration  ETV
vector 2029  Scenario2_SlowSpeed.node[25].veinsmobility  co2emission  ETV
vector 2035  Scenario2_SlowSpeed.node[26].veinsmobility  acceleration  ETV
vector 2036  Scenario2_SlowSpeed.node[26].veinsmobility  co2emission  ETV
vector 2042  Scenario2_SlowSpeed.node[27].veinsmobility  acceleration  ETV
vector 2043  Scenario2_SlowSpeed.node[27].veinsmobility  co2emission  ETV
vector 2049  Scenario2_SlowSpeed.node[28].veinsmobility  acceleration  ETV
vector 2050  Scenario2_SlowSpeed.node[28].veinsmobility  co2emission  ETV
vector 2056  Scenario2_SlowSpeed.node[29].veinsmobility  acceleration  ETV
vector 2057  Scenario2_SlowSpeed.node[29].veinsmobility  co2emission  ETV
vector 2063  Scenario2_SlowSpeed.node[30].veinsmobility  acceleration  ETV
vector 2064  Scenario2_SlowSpeed.node[30].veinsmobility  co2emission  ETV
vector 2070  Scenario2_SlowSpeed.node[31].veinsmobility  acceleration  ETV
vector 2071  Scenario2_SlowSpeed.node[31].veinsmobility  co2emission  ETV
vector 2077  Scenario2_SlowSpeed.node[32].veinsmobility  acceleration  ETV
vector 2078  Scenario2_SlowSpeed.node[32].veinsmobility  co2emission  ETV
vector 2084  Scenario2_SlowSpeed.node[33].veinsmobility  acceleration  ETV
vector 2085  Scenario2_SlowSpeed.node[33].veinsmobility  co2emission  ETV
vector 2091  Scenario2_SlowSpeed.node[34].veinsmobility  acceleration  ETV
vector 2092  Scenario2_SlowSpeed.node[34].veinsmobility  co2emission  ETV
vector 2098  Scenario2_SlowSpeed.node[35].veinsmobility  acceleration  ETV
vector 2099  Scenario2_SlowSpeed.node[35].veinsmobility  co2emission  ETV
vector 2105  Scenario2_SlowSpeed.node[36].veinsmobility  acceleration  ETV
vector 2106  Scenario2_SlowSpeed.node[36].veinsmobility  co2emission  ETV
vector 2112  Scenario2_SlowSpeed.node[37].veinsmobility  acceleration  ETV
vector 2113  Scenario2_SlowSpeed.node[37].veinsmobility  co2emission  ETV
vector 2119  Scenario2_SlowSpeed.node[38].veinsmobility  acceleration  ETV
vector 2120  Scenario2_SlowSpeed.node[38].veinsmobility  co2emission  ETV
vector 2126  Scenario2_SlowSpeed.node[39].veinsmobility  acceleration  ETV
vector 2127  Scenario2_SlowSpeed.node[39].veinsmobility  co2emission  ETV
vector 2133  Scenario2_SlowSpeed.node[40].veinsmobility  acceleration  ETV
vector 2134  Scenario2_SlowSpeed.node[40].veinsmobility  co2emission  ETV
vector 2140  Scenario2_SlowSpeed.node[41].veinsmobility  acceleration  ETV
vector 2141  Scenario2_SlowSpeed.node[41].veinsmobility  co2emission  ETV
vector 2147  Scenario2_SlowSpeed.node[42].veinsmobility  acceleration  ETV
vector 2148  Scenario2_SlowSpeed.node[42].veinsmobility  co2emission  ETV
vector 2154  Scenario2_SlowSpeed.node[43].veinsmobility  acceleration  ETV
vector 2155  Scenario2_SlowSpeed.node[43].veinsmobility  co2emission  ETV
vector 2161  Scenario2_SlowSpeed.node[44].veinsmobility  acceleration  ETV
vector 2162  Scenario2_SlowSpeed.node[44].veinsmobility  co2emission  ETV
vector 2168  Scenario2_SlowSpeed.node[45].veinsmobility  acceleration  ETV
vector 2169  Scenario2_SlowSpeed.node[45].veinsmobility  co2emission  ETV
vector 2175  Scenario2_SlowSpeed.node[46].veinsmobility  acceleration  ETV
vector 2176  Scenario2_SlowSpeed.node[46].veinsmobility  co2emission  ETV
vector 2181  Scenario2_SlowSpeed.node[47].veinsmobility  speed  ETV
vector 2188  Scenario2_SlowSpeed.node[48].veinsmobility  speed  ETV
vector 2195  Scenario2_SlowSpeed.node[49].veinsmobility  speed  ETV
vector 2202  Scenario2_SlowSpeed.node[50].veinsmobility  speed  ETV
vector 2209  Scenario2_SlowSpeed.node[51].veinsmobility  speed  ETV
vector 2216  Scenario2_SlowSpeed.node[52].veinsmobility  speed  ETV
vector 2223  Scenario2_SlowSpeed.node[53].veinsmobility  speed  ETV
vector 2230  Scenario2_SlowSpeed.node[54].veinsmobility  speed  ETV
vector 2237  Scenario2_SlowSpeed.node[55].veinsmobility  speed  ETV
vector 2244  Scenario2_SlowSpeed.node[56].veinsmobility  speed  ETV
vector 2251  Scenario2_SlowSpeed.node[57].veinsmobility  speed  ETV
vector 2258  Scenario2_SlowSpeed.node[58].veinsmobility  speed  ETV
vector 2265  Scenario2_SlowSpeed.node[59].veinsmobility  speed  ETV
vector 2272  Scenario2_SlowSpeed.node[60].veinsmobility  speed  ETV
vector 2279  Scenario2_SlowSpeed.node[61].veinsmobility  speed  ETV
vector 2286  Scenario2_SlowSpeed.node[62].veinsmobility  speed  ETV
vector 2293  Scenario2_SlowSpeed.node[63].veinsmobility  speed  ETV
vector 2300  Scenario2_SlowSpeed.node[64].veinsmobility  speed  ETV
vector 2307  Scenario2_SlowSpeed.node[65].veinsmobility  speed  ETV
vector 2314  Scenario2_SlowSpeed.node[66].veinsmobility  speed  ETV
vector 2321  Scenario2_SlowSpeed.node[67].veinsmobility  speed  ETV
vector 2328  Scenario2_SlowSpeed.node[68].veinsmobility  speed  ETV
vector 2335  Scenario2_SlowSpeed.node[69].veinsmobility  speed  ETV
vector 2342  Scenario2_SlowSpeed.node[70].veinsmobility  speed  ETV
vector 2349  Scenario2_SlowSpeed.node[71].veinsmobility  speed  ETV
vector 2410  Scenario2_SlowSpeed.node[80].veinsmobility  posx  ETV
vector 2411  Scenario2_SlowSpeed.node[80].veinsmobility  posy  ETV
vector 2417  Scenario2_SlowSpeed.node[81].veinsmobility  posx  ETV
vector 2418  Scenario2_SlowSpeed.node[81].veinsmobility  posy  ETV
vector 2424  Scenario2_SlowSpeed.node[82].veinsmobility  posx  ETV
vector 2425  Scenario2_SlowSpeed.node[82].veinsmobility  posy  ETV
vector 2431  Scenario2_SlowSpeed.node[83].veinsmobility  posx  ETV
vector 2432  Scenario2_SlowSpeed.node[83].veinsmobility  posy  ETV
vector 2438  Scenario2_SlowSpeed.node[84].veinsmobility  posx  ETV
vector 2439  Scenario2_SlowSpeed.node[84].veinsmobility  posy  ETV
vector 2445  Scenario2_SlowSpeed.node[85].veinsmobility  posx  ETV
vector 2446  Scenario2_SlowSpeed.node[85].veinsmobility  posy  ETV
vector 2182  Scenario2_SlowSpeed.node[47].veinsmobility  acceleration  ETV
vector 2183  Scenario2_SlowSpeed.node[47].veinsmobility  co2emission  ETV
vector 2189  Scenario2_SlowSpeed.node[48].veinsmobility  acceleration  ETV
vector 2190  Scenario2_SlowSpeed.node[48].veinsmobility  co2emission  ETV
vector 2196  Scenario2_SlowSpeed.node[49].veinsmobility  acceleration  ETV
vector 2197  Scenario2_SlowSpeed.node[49].veinsmobility  co2emission  ETV
vector 2203  Scenario2_SlowSpeed.node[50].veinsmobility  acceleration  ETV
vector 2204  Scenario2_SlowSpeed.node[50].veinsmobility  co2emission  ETV
vector 2210  Scenario2_SlowSpeed.node[51].veinsmobility  acceleration  ETV
vector 2211  Scenario2_SlowSpeed.node[51].veinsmobility  co2emission  ETV
vector 2217  Scenario2_SlowSpeed.node[52].veinsmobility  acceleration  ETV
vector 2218  Scenario2_SlowSpeed.node[52].veinsmobility  co2emission  ETV
vector 2224  Scenario2_SlowSpeed.node[53].veinsmobility  acceleration  ETV
vector 2225  Scenario2_SlowSpeed.node[53].veinsmobility  co2emission  ETV
vector 2231  Scenario2_SlowSpeed.node[54].veinsmobility  acceleration  ETV
vector 2232  Scenario2_SlowSpeed.node[54].veinsmobility  co2emission  ETV
vector 2238  Scenario2_SlowSpeed.node[55].veinsmobility  acceleration  ETV
vector 2239  Scenario2_SlowSpeed.node[55].veinsmobility  co2emission  ETV
vector 2245  Scenario2_SlowSpeed.node[56].veinsmobility  acceleration  ETV
vector 2246  Scenario2_SlowSpeed.node[56].veinsmobility  co2emission  ETV
vector 2252  Scenario2_SlowSpeed.node[57].veinsmobility  acceleration  ETV
vector 2253  Scenario2_SlowSpeed.node[57].veinsmobility  co2emission  ETV
vector 2259  Scenario2_SlowSpeed.node[58].veinsmobility  acceleration  ETV
vector 2260  Scenario2_SlowSpeed.node[58].veinsmobility  co2emission  ETV
vector 2266  Scenario2_SlowSpeed.node[59].veinsmobility  acceleration  ETV
vector 2267  Scenario2_SlowSpeed.node[59].veinsmobility  co2emission  ETV
vector 2273  Scenario2_SlowSpeed.node[60].veinsmobility  acceleration  ETV
vector 2274  Scenario2_SlowSpeed.node[60].veinsmobility  co2emission  ETV
vector 2280  Scenario2_SlowSpeed.node[61].veinsmobility  acceleration  ETV
vector 2281  Scenario2_SlowSpeed.node[61].veinsmobility  co2emission  ETV
vector 2287  Scenario2_SlowSpeed.node[62].veinsmobility  acceleration  ETV
vector 2288  Scenario2_SlowSpeed.node[62].veinsmobility  co2emission  ETV
vector 2294  Scenario2_SlowSpeed.node[63].veinsmobility  acceleration  ETV
vector 2295  Scenario2_SlowSpeed.node[63].veinsmobility  co2emission  ETV
vector 2301  Scenario2_SlowSpeed.node[64].veinsmobility  acceleration  ETV
vector 2302  Scenario2_SlowSpeed.node[64].veinsmobility  co2emission  ETV
vector 2308  Scenario2_SlowSpeed.node[65].veinsmobility  acceleration  ETV
vector 2309  Scenario2_SlowSpeed.node[65].veinsmobility  co2emission  ETV
vector 2315  Scenario2_SlowSpeed.node[66].veinsmobility  acceleration  ETV
vector 2316  Scenario2_SlowSpeed.node[66].veinsmobility  co2emission  ETV
vector 2322  Scenario2_SlowSpeed.node[67].veinsmobility  acceleration  ETV
vector 2323  Scenario2_SlowSpeed.node[67].veinsmobility  co2emission  ETV
vector 2329  Scenario2_SlowSpeed.node[68].veinsmobility  acceleration  ETV
vector 2330  Scenario2_SlowSpeed.node[68].veinsmobility  co2emission  ETV
vector 2336  Scenario2_SlowSpeed.node[69].veinsmobility  acceleration  ETV
vector 2337  Scenario2_SlowSpeed.node[69].veinsmobility  co2emission  ETV
vector 2343  Scenario2_SlowSpeed.node[70].veinsmobility  acceleration  ETV
vector 2344  Scenario2_SlowSpeed.node[70].veinsmobility  co2emission  ETV
vector 2350  Scenario2_SlowSpeed.node[71].veinsmobility  acceleration  ETV
vector 2351  Scenario2_SlowSpeed.node[71].veinsmobility  co2emission  ETV
vector 2356  Scenario2_SlowSpeed.node[72].veinsmobility  speed  ETV
vector 2363  Scenario2_SlowSpeed.node[73].veinsmobility  speed  ETV
vector 2370  Scenario2_SlowSpeed.node[74].veinsmobility  speed  ETV
vector 2377  Scenario2_SlowSpeed.node[75].veinsmobility  speed  ETV
vector 2384  Scenario2_SlowSpeed.node[76].veinsmobility  speed  ETV
vector 2391  Scenario2_SlowSpeed.node[77].veinsmobility  speed  ETV
vector 2398  Scenario2_SlowSpeed.node[78].veinsmobility  speed  ETV
vector 2405  Scenario2_SlowSpeed.node[79].veinsmobility  speed  ETV
vector 2452  Scenario2_SlowSpeed.node[86].veinsmobility  posx  ETV
vector 2453  Scenario2_SlowSpeed.node[86].veinsmobility  posy  ETV
vector 2459  Scenario2_SlowSpeed.node[87].veinsmobility  posx  ETV
vector 2460  Scenario2_SlowSpeed.node[87].veinsmobility  posy  ETV
vector 2466  Scenario2_SlowSpeed.node[88].veinsmobility  posx  ETV
vector 2467  Scenario2_SlowSpeed.node[88].veinsmobility  posy  ETV
vector 2473  Scenario2_SlowSpeed.node[89].veinsmobility  posx  ETV
vector 2474  Scenario2_SlowSpeed.node[89].veinsmobility  posy  ETV
vector 2480  Scenario2_SlowSpeed.node[90].veinsmobility  posx  ETV
vector 2481  Scenario2_SlowSpeed.node[90].veinsmobility  posy  ETV
vector 2357  Scenario2_SlowSpeed.node[72].veinsmobility  acceleration  ETV
vector 2358  Scenario2_SlowSpeed.node[72].veinsmobility  co2emission  ETV
vector 2364  Scenario2_SlowSpeed.node[73].veinsmobility  acceleration  ETV
vector 2365  Scenario2_SlowSpeed.node[73].veinsmobility  co2emission  ETV
vector 2371  Scenario2_SlowSpeed.node[74].veinsmobility  acceleration  ETV
vector 2372  Scenario2_SlowSpeed.node[74].veinsmobility  co2emission  ETV
vector 2378  Scenario2_SlowSpeed.node[75].veinsmobility  acceleration  ETV
vector 2379  Scenario2_SlowSpeed.node[75].veinsmobility  co2emission  ETV
vector 2385  Scenario2_SlowSpeed.node[76].veinsmobility  acceleration  ETV
vector 2386  Scenario2_SlowSpeed.node[76].veinsmobility  co2emission  ETV
vector 2392  Scenario2_SlowSpeed.node[77].veinsmobility  acceleration  ETV
vector 2393  Scenario2_SlowSpeed.node[77].veinsmobility  co2emission  ETV
vector 2399  Scenario2_SlowSpeed.node[78].veinsmobility  acceleration  ETV
vector 2400  Scenario2_SlowSpeed.node[78].veinsmobility  co2emission  ETV
vector 2406  Scenario2_SlowSpeed.node[79].veinsmobility  acceleration  ETV
vector 2407  Scenario2_SlowSpeed.node[79].veinsmobility  co2emission  ETV
vector 2412  Scenario2_SlowSpeed.node[80].veinsmobility  speed  ETV
vector 2419  Scenario2_SlowSpeed.node[81].veinsmobility  speed  ETV
vector 2426  Scenario2_SlowSpeed.node[82].veinsmobility  speed  ETV
vector 2433  Scenario2_SlowSpeed.node[83].veinsmobility  speed  ETV
vector 2440  Scenario2_SlowSpeed.node[84].veinsmobility  speed  ETV
vector 2447  Scenario2_SlowSpeed.node[85].veinsmobility  speed  ETV
vector 2487  Scenario2_SlowSpeed.node[91].veinsmobility  posx  ETV
vector 2488  Scenario2_SlowSpeed.node[91].veinsmobility  posy  ETV
vector 2413  Scenario2_SlowSpeed.node[80].veinsmobility  acceleration  ETV
vector 2414  Scenario2_SlowSpeed.node[80].veinsmobility  co2emission  ETV
vector 2420  Scenario2_SlowSpeed.node[81].veinsmobility  acceleration  ETV
vector 2421  Scenario2_SlowSpeed.node[81].veinsmobility  co2emission  ETV
vector 2427  Scenario2_SlowSpeed.node[82].veinsmobility  acceleration  ETV
vector 2428  Scenario2_SlowSpeed.node[82].veinsmobility  co2emission  ETV
vector 2434  Scenario2_SlowSpeed.node[83].veinsmobility  acceleration  ETV
vector 2435  Scenario2_SlowSpeed.node[83].veinsmobility  co2emission  ETV
vector 2441  Scenario2_SlowSpeed.node[84].veinsmobility  acceleration  ETV
vector 2442  Scenario2_SlowSpeed.node[84].veinsmobility  co2emission  ETV
vector 2448  Scenario2_SlowSpeed.node[85].veinsmobility  acceleration  ETV
vector 2449  Scenario2_SlowSpeed.node[85].veinsmobility  co2emission  ETV
vector 2454  Scenario2_SlowSpeed.node[86].veinsmobility  speed  ETV
vector 2461  Scenario2_SlowSpeed.node[87].veinsmobility  speed  ETV
vector 2468  Scenario2_SlowSpeed.node[88].veinsmobility  speed  ETV
vector 2475  Scenario2_SlowSpeed.node[89].veinsmobility  speed  ETV
vector 2482  Scenario2_SlowSpeed.node[90].veinsmobility  speed  ETV
vector 2494  Scenario2_SlowSpeed.node[92].veinsmobility  posx  ETV
vector 2495  Scenario2_SlowSpeed.node[92].veinsmobility  posy  ETV
vector 2501  Scenario2_SlowSpeed.node[93].veinsmobility  posx  ETV
vector 2502  Scenario2_SlowSpeed.node[93].veinsmobility  posy  ETV
vector 2508  Scenario2_SlowSpeed.node[94].veinsmobility  posx  ETV
vector 2509  Scenario2_SlowSpeed.node[94].veinsmobility  posy  ETV
vector 2515  Scenario2_SlowSpeed.node[95].veinsmobility  posx  ETV
vector 2516  Scenario2_SlowSpeed.node[95].veinsmobility  posy  ETV
vector 2522  Scenario2_SlowSpeed.node[96].veinsmobility  posx  ETV
vector 2523  Scenario2_SlowSpeed.node[96].veinsmobility  posy  ETV
vector 2455  Scenario2_SlowSpeed.node[86].veinsmobility  acceleration  ETV
vector 2456  Scenario2_SlowSpeed.node[86].veinsmobility  co2emission  ETV
vector 2462  Scenario2_SlowSpeed.node[87].veinsmobility  acceleration  ETV
vector 2463  Scenario2_SlowSpeed.node[87].veinsmobility  co2emission  ETV
vector 2469  Scenario2_SlowSpeed.node[88].veinsmobility  acceleration  ETV
vector 2470  Scenario2_SlowSpeed.node[88].veinsmobility  co2emission  ETV
vector 2476  Scenario2_SlowSpeed.node[89].veinsmobility  acceleration  ETV
vector 2477  Scenario2_SlowSpeed.node[89].veinsmobility  co2emission  ETV
vector 2483  Scenario2_SlowSpeed.node[90].veinsmobility  acceleration  ETV
vector 2484  Scenario2_SlowSpeed.node[90].veinsmobility  co2emission  ETV
vector 2489  Scenario2_SlowSpeed.node[91].veinsmobility  speed  ETV
vector 2529  Scenario2_SlowSpeed.node[97].veinsmobility  posx  ETV
vector 2530  Scenario2_SlowSpeed.node[97].veinsmobility  posy  ETV
vector 2536  Scenario2_SlowSpeed.node[98].veinsmobility  posx  ETV
vector 2537  Scenario2_SlowSpeed.node[98].veinsmobility  posy  ETV
vector 2543  Scenario2_SlowSpeed.node[99].veinsmobility  posx  ETV
vector 2544  Scenario2_SlowSpeed.node[99].veinsmobility  posy  ETV
vector 2550  Scenario2_SlowSpeed.node[100].veinsmobility  posx  ETV
vector 2551  Scenario2_SlowSpeed.node[100].veinsmobility  posy  ETV
vector 2557  Scenario2_SlowSpeed.node[101].veinsmobility  posx  ETV
vector 2558  Scenario2_SlowSpeed.node[101].veinsmobility  posy  ETV
vector 2564  Scenario2_SlowSpeed.node[102].veinsmobility  posx  ETV
vector 2565  Scenario2_SlowSpeed.node[102].veinsmobility  posy  ETV
vector 2490  Scenario2_SlowSpeed.node[91].veinsmobility  acceleration  ETV
vector 2491  Scenario2_SlowSpeed.node[91].veinsmobility  co2emission  ETV
vector 2496  Scenario2_SlowSpeed.node[92].veinsmobility  speed  ETV
vector 2503  Scenario2_SlowSpeed.node[93].veinsmobility  speed  ETV
vector 2510  Scenario2_SlowSpeed.node[94].veinsmobility  speed  ETV
vector 2517  Scenario2_SlowSpeed.node[95].veinsmobility  speed  ETV
vector 2524  Scenario2_SlowSpeed.node[96].veinsmobility  speed  ETV
vector 2571  Scenario2_SlowSpeed.node[103].veinsmobility  posx  ETV
vector 2572  Scenario2_SlowSpeed.node[103].veinsmobility  posy  ETV
vector 2578  Scenario2_SlowSpeed.node[104].veinsmobility  posx  ETV
vector 2579  Scenario2_SlowSpeed.node[104].veinsmobility  posy  ETV
vector 2585  Scenario2_SlowSpeed.node[105].veinsmobility  posx  ETV
vector 2586  Scenario2_SlowSpeed.node[105].veinsmobility  posy  ETV
vector 2592  Scenario2_SlowSpeed.node[106].veinsmobility  posx  ETV
vector 2593  Scenario2_SlowSpeed.node[106].veinsmobility  posy  ETV
vector 2599  Scenario2_SlowSpeed.node[107].veinsmobility  posx  ETV
vector 2600  Scenario2_SlowSpeed.node[107].veinsmobility  posy  ETV
vector 2497  Scenario2_SlowSpeed.node[92].veinsmobility  acceleration  ETV
vector 2498  Scenario2_SlowSpeed.node[92].veinsmobility  co2emission  ETV
vector 2504  Scenario2_SlowSpeed.node[93].veinsmobility  acceleration  ETV
vector 2505  Scenario2_SlowSpeed.node[93].veinsmobility  co2emission  ETV
vector 2511  Scenario2_SlowSpeed.node[94].veinsmobility  acceleration  ETV
vector 2512  Scenario2_SlowSpeed.node[94].veinsmobility  co2emission  ETV
vector 2518  Scenario2_SlowSpeed.node[95].veinsmobility  acceleration  ETV
vector 2519  Scenario2_SlowSpeed.node[95].veinsmobility  co2emission  ETV
vector 2525  Scenario2_SlowSpeed.node[96].veinsmobility  acceleration  ETV
vector 2526  Scenario2_SlowSpeed.node[96].veinsmobility  co2emission  ETV
vector 2531  Scenario2_SlowSpeed.node[97].veinsmobility  speed  ETV
vector 2538  Scenario2_SlowSpeed.node[98].veinsmobility  speed  ETV
vector 2545  Scenario2_SlowSpeed.node[99].veinsmobility  speed  ETV
vector 2552  Scenario2_SlowSpeed.node[100].veinsmobility  speed  ETV
vector 2559  Scenario2_SlowSpeed.node[101].veinsmobility  speed  ETV
vector 2566  Scenario2_SlowSpeed.node[102].veinsmobility  speed  ETV
vector 2606  Scenario2_SlowSpeed.node[108].veinsmobility  posx  ETV
vector 2607  Scenario2_SlowSpeed.node[108].veinsmobility  posy  ETV
vector 2613  Scenario2_SlowSpeed.node[109].veinsmobility  posx  ETV
vector 2614  Scenario2_SlowSpeed.node[109].veinsmobility  posy  ETV
vector 2620  Scenario2_SlowSpeed.node[110].veinsmobility  posx  ETV
vector 2621  Scenario2_SlowSpeed.node[110].veinsmobility  posy  ETV
vector 2627  Scenario2_SlowSpeed.node[111].veinsmobility  posx  ETV
vector 2628  Scenario2_SlowSpeed.node[111].veinsmobility  posy  ETV
vector 2634  Scenario2_SlowSpeed.node[112].veinsmobility  posx  ETV
vector 2635  Scenario2_SlowSpeed.node[112].veinsmobility  posy  ETV
vector 2641  Scenario2_SlowSpeed.node[113].veinsmobility  posx  ETV
vector 2642  Scenario2_SlowSpeed.node[113].veinsmobility  posy  ETV
vector 2532  Scenario2_SlowSpeed.node[97].veinsmobility  acceleration  ETV
vector 2533  Scenario2_SlowSpeed.node[97].veinsmobility  co2emission  ETV
vector 2539  Scenario2_SlowSpeed.node[98].veinsmobility  acceleration  ETV
vector 2540  Scenario2_SlowSpeed.node[98].veinsmobility  co2emission  ETV
vector 2546  Scenario2_SlowSpeed.node[99].veinsmobility  acceleration  ETV
vector 2547  Scenario2_SlowSpeed.node[99].veinsmobility  co2emission  ETV
vector 2553  Scenario2_SlowSpeed.node[100].veinsmobility  acceleration  ETV
vector 2554  Scenario2_SlowSpeed.node[100].veinsmobility  co2emission  ETV
vector 2560  Scenario2_SlowSpeed.node[101].veinsmobility  acceleration  ETV
vector 2561  Scenario2_SlowSpeed.node[101].veinsmobility  co2emission  ETV
vector 2567  Scenario2_SlowSpeed.node[102].veinsmobility  acceleration  ETV
vector 2568  Scenario2_SlowSpeed.node[102].veinsmobility  co2emission  ETV
vector 2573  Scenario2_SlowSpeed.node[103].veinsmobility  speed  ETV
vector 2580  Scenario2_SlowSpeed.node[104].veinsmobility  speed  ETV
vector 2587  Scenario2_SlowSpeed.node[105].veinsmobility  speed  ETV
vector 2594  Scenario2_SlowSpeed.node[106].veinsmobility  speed  ETV
vector 2601  Scenario2_SlowSpeed.node[107].veinsmobility  speed  ETV
vector 2648  Scenario2_SlowSpeed.node[114].veinsmobility  posx  ETV
vector 2649  Scenario2_SlowSpeed.node[114].veinsmobility  posy  ETV
vector 2655  Scenario2_SlowSpeed.node[115].veinsmobility  posx  ETV
vector 2656  Scenario2_SlowSpeed.node[115].veinsmobility  posy  ETV
vector 2574  Scenario2_SlowSpeed.node[103].veinsmobility  acceleration  ETV
vector 2575  Scenario2_SlowSpeed.node[103].veinsmobility  co2emission  ETV
vector 2581  Scenario2_SlowSpeed.node[104].veinsmobility  acceleration  ETV
vector 2582  Scenario2_SlowSpeed.node[104].veinsmobility  co2emission  ETV
vector 2588  Scenario2_SlowSpeed.node[105].veinsmobility  acceleration  ETV
vector 2589  Scenario2_SlowSpeed.node[105].veinsmobility  co2emission  ETV
vector 2595  Scenario2_SlowSpeed.node[106].veinsmobility  acceleration  ETV
vector 2596  Scenario2_SlowSpeed.node[106].veinsmobility  co2emission  ETV
vector 2602  Scenario2_SlowSpeed.node[107].veinsmobility  acceleration  ETV
vector 2603  Scenario2_SlowSpeed.node[107].veinsmobility  co2emission  ETV
vector 2608  Scenario2_SlowSpeed.node[108].veinsmobility  speed  ETV
vector 2615  Scenario2_SlowSpeed.node[109].veinsmobility  speed  ETV
vector 2622  Scenario2_SlowSpeed.node[110].veinsmobility  speed  ETV
vector 2629  Scenario2_SlowSpeed.node[111].veinsmobility  speed  ETV
vector 2636  Scenario2_SlowSpeed.node[112].veinsmobility  speed  ETV
vector 2643  Scenario2_SlowSpeed.node[113].veinsmobility  speed  ETV
vector 2662  Scenario2_SlowSpeed.node[116].veinsmobility  posx  ETV
vector 2663  Scenario2_SlowSpeed.node[116].veinsmobility  posy  ETV
vector 2669  Scenario2_SlowSpeed.node[117].veinsmobility  posx  ETV
vector 2670  Scenario2_SlowSpeed.node[117].veinsmobility  posy  ETV
vector 2676  Scenario2_SlowSpeed.node[118].veinsmobility  posx  ETV
vector 2677  Scenario2_SlowSpeed.node[118].veinsmobility  posy  ETV
vector 2683  Scenario2_SlowSpeed.node[119].veinsmobility  posx  ETV
vector 2684  Scenario2_SlowSpeed.node[119].veinsmobility  posy  ETV
vector 2690  Scenario2_SlowSpeed.node[120].veinsmobility  posx  ETV
vector 2691  Scenario2_SlowSpeed.node[120].veinsmobility  posy  ETV
vector 2697  Scenario2_SlowSpeed.node[121].veinsmobility  posx  ETV
vector 2698  Scenario2_SlowSpeed.node[121].veinsmobility  posy  ETV
vector 2704  Scenario2_SlowSpeed.node[122].veinsmobility  posx  ETV
vector 2705  Scenario2_SlowSpeed.node[122].veinsmobility  posy  ETV
vector 2711  Scenario2_SlowSpeed.node[123].veinsmobility  posx  ETV
vector 2712  Scenario2_SlowSpeed.node[123].veinsmobility  posy  ETV
vector 2718  Scenario2_SlowSpeed.node[124].veinsmobility  posx  ETV
vector 2719  Scenario2_SlowSpeed.node[124].veinsmobility  posy  ETV
vector 2609  Scenario2_SlowSpeed.node[108].veinsmobility  acceleration  ETV
vector 2610  Scenario2_SlowSpeed.node[108].veinsmobility  co2emission  ETV
vector 2616  Scenario2_SlowSpeed.node[109].veinsmobility  acceleration  ETV
vector 2617  Scenario2_SlowSpeed.node[109].veinsmobility  co2emission  ETV
vector 2623  Scenario2_SlowSpeed.node[110].veinsmobility  acceleration  ETV
vector 2624  Scenario2_SlowSpeed.node[110].veinsmobility  co2emission  ETV
vector 2630  Scenario2_SlowSpeed.node[111].veinsmobility  acceleration  ETV
vector 2631  Scenario2_SlowSpeed.node[111].veinsmobility  co2emission  ETV
vector 2637  Scenario2_SlowSpeed.node[112].veinsmobility  acceleration  ETV
vector 2638  Scenario2_SlowSpeed.node[112].veinsmobility  co2emission  ETV
vector 2644  Scenario2_SlowSpeed.node[113].veinsmobility  acceleration  ETV
vector 2645  Scenario2_SlowSpeed.node[113].veinsmobility  co2emission  ETV
vector 2650  Scenario2_SlowSpeed.node[114].veinsmobility  speed  ETV
vector 2657  Scenario2_SlowSpeed.node[115].veinsmobility  speed  ETV
vector 2725  Scenario2_SlowSpeed.node[125].veinsmobility  posx  ETV
vector 2726  Scenario2_SlowSpeed.node[125].veinsmobility  posy  ETV
vector 2732  Scenario2_SlowSpeed.node[126].veinsmobility  posx  ETV
vector 2733  Scenario2_SlowSpeed.node[126].veinsmobility  posy  ETV
vector 2739  Scenario2_SlowSpeed.node[127].veinsmobility  posx  ETV
vector 2740  Scenario2_SlowSpeed.node[127].veinsmobility  posy  ETV
vector 2651  Scenario2_SlowSpeed.node[114].veinsmobility  acceleration  ETV
vector 2652  Scenario2_SlowSpeed.node[114].veinsmobility  co2emission  ETV
vector 2658  Scenario2_SlowSpeed.node[115].veinsmobility  acceleration  ETV
vector 2659  Scenario2_SlowSpeed.node[115].veinsmobility  co2emission  ETV
vector 2664  Scenario2_SlowSpeed.node[116].veinsmobility  speed  ETV
vector 2671  Scenario2_SlowSpeed.node[117].veinsmobility  speed  ETV
vector 2678  Scenario2_SlowSpeed.node[118].veinsmobility  speed  ETV
vector 2685  Scenario2_SlowSpeed.node[119].veinsmobility  speed  ETV
vector 2692  Scenario2_SlowSpeed.node[120].veinsmobility  speed  ETV
vector 2699  Scenario2_SlowSpeed.node[121].veinsmobility  speed  ETV
vector 2706  Scenario2_SlowSpeed.node[122].veinsmobility  speed  ETV
vector 2713  Scenario2_SlowSpeed.node[123].veinsmobility  speed  ETV
vector 2720  Scenario2_SlowSpeed.node[124].veinsmobility  speed  ETV
vector 2746  Scenario2_SlowSpeed.node[128].veinsmobility  posx  ETV
vector 2747  Scenario2_SlowSpeed.node[128].veinsmobility  posy  ETV
vector 2753  Scenario2_SlowSpeed.node[129].veinsmobility  posx  ETV
vector 2754  Scenario2_SlowSpeed.node[129].veinsmobility  posy  ETV
vector 2760  Scenario2_SlowSpeed.node[130].veinsmobility  posx  ETV
vector 2761  Scenario2_SlowSpeed.node[130].veinsmobility  posy  ETV
vector 2767  Scenario2_SlowSpeed.node[131].veinsmobility  posx  ETV
vector 2768  Scenario2_SlowSpeed.node[131].veinsmobility  posy  ETV
vector 2774  Scenario2_SlowSpeed.node[132].veinsmobility  posx  ETV
vector 2775  Scenario2_SlowSpeed.node[132].veinsmobility  posy  ETV
vector 2781  Scenario2_SlowSpeed.node[133].veinsmobility  posx  ETV
vector 2782  Scenario2_SlowSpeed.node[133].veinsmobility  posy  ETV
vector 2788  Scenario2_SlowSpeed.node[134].veinsmobility  posx  ETV
vector 2789  Scenario2_SlowSpeed.node[134].veinsmobility  posy  ETV
vector 2795  Scenario2_SlowSpeed.node[135].veinsmobility  posx  ETV
vector 2796  Scenario2_SlowSpeed.node[135].veinsmobility  posy  ETV
vector 2802  Scenario2_SlowSpeed.node[136].veinsmobility  posx  ETV
vector 2803  Scenario2_SlowSpeed.node[136].veinsmobility  posy  ETV
vector 2809  Scenario2_SlowSpeed.node[137].veinsmobility  posx  ETV
vector 2810  Scenario2_SlowSpeed.node[137].veinsmobility  posy  ETV
vector 2816  Scenario2_SlowSpeed.node[138].veinsmobility  posx  ETV
vector 2817  Scenario2_SlowSpeed.node[138].veinsmobility  posy  ETV
vector 2823  Scenario2_SlowSpeed.node[139].veinsmobility  posx  ETV
vector 2824  Scenario2_SlowSpeed.node[139].veinsmobility  posy  ETV
vector 2830  Scenario2_SlowSpeed.node[140].veinsmobility  posx  ETV
vector 2831  Scenario2_SlowSpeed.node[140].veinsmobility  posy  ETV
vector 2665  Scenario2_SlowSpeed.node[116].veinsmobility  acceleration  ETV
vector 2666  Scenario2_SlowSpeed.node[116].veinsmobility  co2emission  ETV
vector 2672  Scenario2_SlowSpeed.node[117].veinsmobility  acceleration  ETV
vector 2673  Scenario2_SlowSpeed.node[117].veinsmobility  co2emission  ETV
vector 2679  Scenario2_SlowSpeed.node[118].veinsmobility  acceleration  ETV
vector 2680  Scenario2_SlowSpeed.node[118].veinsmobility  co2emission  ETV
vector 2686  Scenario2_SlowSpeed.node[119].veinsmobility  acceleration  ETV
vector 2687  Scenario2_SlowSpeed.node[119].veinsmobility  co2emission  ETV
vector 2693  Scenario2_SlowSpeed.node[120].veinsmobility  acceleration  ETV
vector 2694  Scenario2_SlowSpeed.node[120].veinsmobility  co2emission  ETV
vector 2700  Scenario2_SlowSpeed.node[121].veinsmobility  acceleration  ETV
vector 2701  Scenario2_SlowSpeed.node[121].veinsmobility  co2emission  ETV
vector 2707  Scenario2_SlowSpeed.node[122].veinsmobility  acceleration  ETV
vector 2708  Scenario2_SlowSpeed.node[122].veinsmobility  co2emission  ETV
vector 2714  Scenario2_SlowSpeed.node[123].veinsmobility  acceleration  ETV
vector 2715  Scenario2_SlowSpeed.node[123].veinsmobility  co2emission  ETV
vector 2721  Scenario2_SlowSpeed.node[124].veinsmobility  acceleration  ETV
vector 2722  Scenario2_SlowSpeed.node[124].veinsmobility  co2emission  ETV
vector 2727  Scenario2_SlowSpeed.node[125].veinsmobility  speed  ETV
vector 2734  Scenario2_SlowSpeed.node[126].veinsmobility  speed  ETV
vector 2741  Scenario2_SlowSpeed.node[127].veinsmobility  speed  ETV
vector 2837  Scenario2_SlowSpeed.node[141].veinsmobility  posx  ETV
vector 2838  Scenario2_SlowSpeed.node[141].veinsmobility  posy  ETV
vector 2844  Scenario2_SlowSpeed.node[142].veinsmobility  posx  ETV
vector 2845  Scenario2_SlowSpeed.node[142].veinsmobility  posy  ETV
vector 2851  Scenario2_SlowSpeed.node[143].veinsmobility  posx  ETV
vector 2852  Scenario2_SlowSpeed.node[143].veinsmobility  posy  ETV
vector 2858  Scenario2_SlowSpeed.node[144].veinsmobility  posx  ETV
vector 2859  Scenario2_SlowSpeed.node[144].veinsmobility  posy  ETV
vector 2865  Scenario2_SlowSpeed.node[145].veinsmobility  posx  ETV
vector 2866  Scenario2_SlowSpeed.node[145].veinsmobility  posy  ETV
vector 2872  Scenario2_SlowSpeed.node[146].veinsmobility  posx  ETV
vector 2873  Scenario2_SlowSpeed.node[146].veinsmobility  posy  ETV
vector 2728  Scenario2_SlowSpeed.node[125].veinsmobility  acceleration  ETV
vector 2729  Scenario2_SlowSpeed.node[125].veinsmobility  co2emission  ETV
vector 2735  Scenario2_SlowSpeed.node[126].veinsmobility  acceleration  ETV
vector 2736  Scenario2_SlowSpeed.node[126].veinsmobility  co2emission  ETV
vector 2742  Scenario2_SlowSpeed.node[127].veinsmobility  acceleration  ETV
vector 2743  Scenario2_SlowSpeed.node[127].veinsmobility  co2emission  ETV
vector 2748  Scenario2_SlowSpeed.node[128].veinsmobility  speed  ETV
vector 2755  Scenario2_SlowSpeed.node[129].veinsmobility  speed  ETV
vector 2762  Scenario2_SlowSpeed.node[130].veinsmobility  speed  ETV
vector 2769  Scenario2_SlowSpeed.node[131].veinsmobility  speed  ETV
vector 2776  Scenario2_SlowSpeed.node[132].veinsmobility  speed  ETV
vector 2783  Scenario2_SlowSpeed.node[133].veinsmobility  speed  ETV
vector 2790  Scenario2_SlowSpeed.node[134].veinsmobility  speed  ETV
vector 2797  Scenario2_SlowSpeed.node[135].veinsmobility  speed  ETV
vector 2804  Scenario2_SlowSpeed.node[136].veinsmobility  speed  ETV
vector 2811  Scenario2_SlowSpeed.node[137].veinsmobility  speed  ETV
vector 2818  Scenario2_SlowSpeed.node[138].veinsmobility  speed  ETV
vector 2825  Scenario2_SlowSpeed.node[139].veinsmobility  speed  ETV
vector 2832  Scenario2_SlowSpeed.node[140].veinsmobility  speed  ETV
vector 2879  Scenario2_SlowSpeed.node[147].veinsmobility  posx  ETV
vector 2880  Scenario2_SlowSpeed.node[147].veinsmobility  posy  ETV
vector 2886  Scenario2_SlowSpeed.node[148].veinsmobility  posx  ETV
vector 2887  Scenario2_SlowSpeed.node[148].veinsmobility  posy  ETV
vector 2893  Scenario2_SlowSpeed.node[149].veinsmobility  posx  ETV
vector 2894  Scenario2_SlowSpeed.node[149].veinsmobility  posy  ETV
vector 2900  Scenario2_SlowSpeed.node[150].veinsmobility  posx  ETV
vector 2901  Scenario2_SlowSpeed.node[150].veinsmobility  posy  ETV
vector 2907  Scenario2_SlowSpeed.node[151].veinsmobility  posx  ETV
vector 2908  Scenario2_SlowSpeed.node[151].veinsmobility  posy  ETV
vector 2749  Scenario2_SlowSpeed.node[128].veinsmobility  acceleration  ETV
vector 2750  Scenario2_SlowSpeed.node[128].veinsmobility  co2emission  ETV
vector 2756  Scenario2_SlowSpeed.node[129].veinsmobility  acceleration  ETV
vector 2757  Scenario2_SlowSpeed.node[129].veinsmobility  co2emission  ETV
vector 2763  Scenario2_SlowSpeed.node[130].veinsmobility  acceleration  ETV
vector 2764  Scenario2_SlowSpeed.node[130].veinsmobility  co2emission  ETV
vector 2770  Scenario2_SlowSpeed.node[131].veinsmobility  acceleration  ETV
vector 2771  Scenario2_SlowSpeed.node[131].veinsmobility  co2emission  ETV
vector 2777  Scenario2_SlowSpeed.node[132].veinsmobility  acceleration  ETV
vector 2778  Scenario2_SlowSpeed.node[132].veinsmobility  co2emission  ETV
vector 2784  Scenario2_SlowSpeed.node[133].veinsmobility  acceleration  ETV
vector 2785  Scenario2_SlowSpeed.node[133].veinsmobility  co2emission  ETV
vector 2791  Scenario2_SlowSpeed.node[134].veinsmobility  acceleration  ETV
vector 2792  Scenario2_SlowSpeed.node[134].veinsmobility  co2emission  ETV
vector 2798  Scenario2_SlowSpeed.node[135].veinsmobility  acceleration  ETV
vector 2799  Scenario2_SlowSpeed.node[135].veinsmobility  co2emission  ETV
vector 2805  Scenario2_SlowSpeed.node[136].veinsmobility  acceleration  ETV
vector 2806  Scenario2_SlowSpeed.node[136].veinsmobility  co2emission  ETV
vector 2812  Scenario2_SlowSpeed.node[137].veinsmobility  acceleration  ETV
vector 2813  Scenario2_SlowSpeed.node[137].veinsmobility  co2emission  ETV
vector 2819  Scenario2_SlowSpeed.node[138].veinsmobility  acceleration  ETV
vector 2820  Scenario2_SlowSpeed.node[138].veinsmobility  co2emission  ETV
vector 2826  Scenario2_SlowSpeed.node[139].veinsmobility  acceleration  ETV
vector 2827  Scenario2_SlowSpeed.node[139].veinsmobility  co2emission  ETV
vector 2833  Scenario2_SlowSpeed.node[140].veinsmobility  acceleration  ETV
vector 2834  Scenario2_SlowSpeed.node[140].veinsmobility  co2emission  ETV
vector 2839  Scenario2_SlowSpeed.node[141].veinsmobility  speed  ETV
vector 2846  Scenario2_SlowSpeed.node[142].veinsmobility  speed  ETV
vector 2853  Scenario2_SlowSpeed.node[143].veinsmobility  speed  ETV
vector 2860  Scenario2_SlowSpeed.node[144].veinsmobility  speed  ETV
vector 2867  Scenario2_SlowSpeed.node[145].veinsmobility  speed  ETV
vector 2874  Scenario2_SlowSpeed.node[146].veinsmobility  speed  ETV
vector 2914  Scenario2_SlowSpeed.node[152].veinsmobility  posx  ETV
vector 2915  Scenario2_SlowSpeed.node[152].veinsmobility  posy  ETV
vector 2921  Scenario2_SlowSpeed.node[153].veinsmobility  posx  ETV
vector 2922  Scenario2_SlowSpeed.node[153].veinsmobility  posy  ETV
vector 2928  Scenario2_SlowSpeed.node[154].veinsmobility  posx  ETV
vector 2929  Scenario2_SlowSpeed.node[154].veinsmobility  posy  ETV
vector 2935  Scenario2_SlowSpeed.node[155].veinsmobility  posx  ETV
vector 2936  Scenario2_SlowSpeed.node[155].veinsmobility  posy  ETV
vector 2942  Scenario2_SlowSpeed.node[156].veinsmobility  posx  ETV
vector 2943  Scenario2_SlowSpeed.node[156].veinsmobility  posy  ETV
vector 2840  Scenario2_SlowSpeed.node[141].veinsmobility  acceleration  ETV
vector 2841  Scenario2_SlowSpeed.node[141].veinsmobility  co2emission  ETV
vector 2847  Scenario2_SlowSpeed.node[142].veinsmobility  acceleration  ETV
vector 2848  Scenario2_SlowSpeed.node[142].veinsmobility  co2emission  ETV
vector 2854  Scenario2_SlowSpeed.node[143].veinsmobility  acceleration  ETV
vector 2855  Scenario2_SlowSpeed.node[143].veinsmobility  co2emission  ETV
vector 2861  Scenario2_SlowSpeed.node[144].veinsmobility  acceleration  ETV
vector 2862  Scenario2_SlowSpeed.node[144].veinsmobility  co2emission  ETV
vector 2868  Scenario2_SlowSpeed.node[145].veinsmobility  acceleration  ETV
vector 2869  Scenario2_SlowSpeed.node[145].veinsmobility  co2emission  ETV
vector 2875  Scenario2_SlowSpeed.node[146].veinsmobility  acceleration  ETV
vector 2876  Scenario2_SlowSpeed.node[146].veinsmobility  co2emission  ETV
vector 2881  Scenario2_SlowSpeed.node[147].veinsmobility  speed  ETV
vector 2888  Scenario2_SlowSpeed.node[148].veinsmobility  speed  ETV
vector 2895  Scenario2_SlowSpeed.node[149].veinsmobility  speed  ETV
vector 2902  Scenario2_SlowSpeed.node[150].veinsmobility  speed  ETV
vector 2909  Scenario2_SlowSpeed.node[151].veinsmobility  speed  ETV
vector 2949  Scenario2_SlowSpeed.node[157].veinsmobility  posx  ETV
vector 2950  Scenario2_SlowSpeed.node[157].veinsmobility  posy  ETV
vector 2956  Scenario2_SlowSpeed.node[158].veinsmobility  posx  ETV
vector 2957  Scenario2_SlowSpeed.node[158].veinsmobility  posy  ETV
vector 2963  Scenario2_SlowSpeed.node[159].veinsmobility  posx  ETV
vector 2964  Scenario2_SlowSpeed.node[159].veinsmobility  posy  ETV
vector 2970  Scenario2_SlowSpeed.node[160].veinsmobility  posx  ETV
vector 2971  Scenario2_SlowSpeed.node[160].veinsmobility  posy  ETV
vector 2882  Scenario2_SlowSpeed.node[147].veinsmobility  acceleration  ETV
vector 2883  Scenario2_SlowSpeed.node[147].veinsmobility  co2emission  ETV
vector 2889  Scenario2_SlowSpeed.node[148].veinsmobility  acceleration  ETV
vector 2890  Scenario2_SlowSpeed.node[148].veinsmobility  co2emission  ETV
vector 2896  Scenario2_SlowSpeed.node[149].veinsmobility  acceleration  ETV
vector 2897  Scenario2_SlowSpeed.node[149].veinsmobility  co2emission  ETV
vector 2903  Scenario2_SlowSpeed.node[150].veinsmobility  acceleration  ETV
vector 2904  Scenario2_SlowSpeed.node[150].veinsmobility  co2emission  ETV
vector 2910  Scenario2_SlowSpeed.node[151].veinsmobility  acceleration  ETV
vector 2911  Scenario2_SlowSpeed.node[151].veinsmobility  co2emission  ETV
vector 2916  Scenario2_SlowSpeed.node[152].veinsmobility  speed  ETV
vector 2923  Scenario2_SlowSpeed.node[153].veinsmobility  speed  ETV
vector 2930  Scenario2_SlowSpeed.node[154].veinsmobility  speed  ETV
vector 2937  Scenario2_SlowSpeed.node[155].veinsmobility  speed  ETV
vector 2944  Scenario2_SlowSpeed.node[156].veinsmobility  speed  ETV
vector 2977  Scenario2_SlowSpeed.node[161].veinsmobility  posx  ETV
vector 2978  Scenario2_SlowSpeed.node[161].veinsmobility  posy  ETV
vector 2984  Scenario2_SlowSpeed.node[162].veinsmobility  posx  ETV
vector 2985  Scenario2_SlowSpeed.node[162].veinsmobility  posy  ETV
vector 2991  Scenario2_SlowSpeed.node[163].veinsmobility  posx  ETV
vector 2992  Scenario2_SlowSpeed.node[163].veinsmobility  posy  ETV
vector 2917  Scenario2_SlowSpeed.node[152].veinsmobility  acceleration  ETV
vector 2918  Scenario2_SlowSpeed.node[152].veinsmobility  co2emission  ETV
vector 2924  Scenario2_SlowSpeed.node[153].veinsmobility  acceleration  ETV
vector 2925  Scenario2_SlowSpeed.node[153].veinsmobility  co2emission  ETV
vector 2931  Scenario2_SlowSpeed.node[154].veinsmobility  acceleration  ETV
vector 2932  Scenario2_SlowSpeed.node[154].veinsmobility  co2emission  ETV
vector 2938  Scenario2_SlowSpeed.node[155].veinsmobility  acceleration  ETV
vector 2939  Scenario2_SlowSpeed.node[155].veinsmobility  co2emission  ETV
vector 2945  Scenario2_SlowSpeed.node[156].veinsmobility  acceleration  ETV
vector 2946  Scenario2_SlowSpeed.node[156].veinsmobility  co2emission  ETV
vector 2951  Scenario2_SlowSpeed.node[157].veinsmobility  speed  ETV
vector 2958  Scenario2_SlowSpeed.node[158].veinsmobility  speed  ETV
vector 2965  Scenario2_SlowSpeed.node[159].veinsmobility  speed  ETV
vector 2972  Scenario2_SlowSpeed.node[160].veinsmobility  speed  ETV
vector 2998  Scenario2_SlowSpeed.node[164].veinsmobility  posx  ETV
vector 2999  Scenario2_SlowSpeed.node[164].veinsmobility  posy  ETV
vector 3005  Scenario2_SlowSpeed.node[165].veinsmobility  posx  ETV
vector 3006  Scenario2_SlowSpeed.node[165].veinsmobility  posy  ETV
vector 3012  Scenario2_SlowSpeed.node[166].veinsmobility  posx  ETV
vector 3013  Scenario2_SlowSpeed.node[166].veinsmobility  posy  ETV
vector 3019  Scenario2_SlowSpeed.node[167].veinsmobility  posx  ETV
vector 3020  Scenario2_SlowSpeed.node[167].veinsmobility  posy  ETV
vector 3026  Scenario2_SlowSpeed.node[168].veinsmobility  posx  ETV
vector 3027  Scenario2_SlowSpeed.node[168].veinsmobility  posy  ETV
vector 3033  Scenario2_SlowSpeed.node[169].veinsmobility  posx  ETV
vector 3034  Scenario2_SlowSpeed.node[169].veinsmobility  posy  ETV
vector 3040  Scenario2_SlowSpeed.node[170].veinsmobility  posx  ETV
vector 3041  Scenario2_SlowSpeed.node[170].veinsmobility  posy  ETV
vector 3047  Scenario2_SlowSpeed.node[171].veinsmobility  posx  ETV
vector 3048  Scenario2_SlowSpeed.node[171].veinsmobility  posy  ETV
vector 2952  Scenario2_SlowSpeed.node[157].veinsmobility  acceleration  ETV
vector 2953  Scenario2_SlowSpeed.node[157].veinsmobility  co2emission  ETV
vector 2959  Scenario2_SlowSpeed.node[158].veinsmobility  acceleration  ETV
vector 2960  Scenario2_SlowSpeed.node[158].veinsmobility  co2emission  ETV
vector 2966  Scenario2_SlowSpeed.node[159].veinsmobility  acceleration  ETV
vector 2967  Scenario2_SlowSpeed.node[159].veinsmobility  co2emission  ETV
vector 2973  Scenario2_SlowSpeed.node[160].veinsmobility  acceleration  ETV
vector 2974  Scenario2_SlowSpeed.node[160].veinsmobility  co2emission  ETV
vector 2979  Scenario2_SlowSpeed.node[161].veinsmobility  speed  ETV
vector 2986  Scenario2_SlowSpeed.node[162].veinsmobility  speed  ETV
vector 2993  Scenario2_SlowSpeed.node[163].veinsmobility  speed  ETV
vector 3054  Scenario2_SlowSpeed.node[172].veinsmobility  posx  ETV
vector 3055  Scenario2_SlowSpeed.node[172].veinsmobility  posy  ETV
vector 3061  Scenario2_SlowSpeed.node[173].veinsmobility  posx  ETV
vector 3062  Scenario2_SlowSpeed.node[173].veinsmobility  posy  ETV
vector 2980  Scenario2_SlowSpeed.node[161].veinsmobility  acceleration  ETV
vector 2981  Scenario2_SlowSpeed.node[161].veinsmobility  co2emission  ETV
vector 2987  Scenario2_SlowSpeed.node[162].veinsmobility  acceleration  ETV
vector 2988  Scenario2_SlowSpeed.node[162].veinsmobility  co2emission  ETV
vector 2994  Scenario2_SlowSpeed.node[163].veinsmobility  acceleration  ETV
vector 2995  Scenario2_SlowSpeed.node[163].veinsmobility  co2emission  ETV
vector 3000  Scenario2_SlowSpeed.node[164].veinsmobility  speed  ETV
vector 3007  Scenario2_SlowSpeed.node[165].veinsmobility  speed  ETV
vector 3014  Scenario2_SlowSpeed.node[166].veinsmobility  speed  ETV
vector 3021  Scenario2_SlowSpeed.node[167].veinsmobility  speed  ETV
vector 3028  Scenario2_SlowSpeed.node[168].veinsmobility  speed  ETV
vector 3035  Scenario2_SlowSpeed.node[169].veinsmobility  speed  ETV
vector 3042  Scenario2_SlowSpeed.node[170].veinsmobility  speed  ETV
vector 3049  Scenario2_SlowSpeed.node[171].veinsmobility  speed  ETV
vector 3068  Scenario2_SlowSpeed.node[174].veinsmobility  posx  ETV
vector 3069  Scenario2_SlowSpeed.node[174].veinsmobility  posy  ETV
vector 3075  Scenario2_SlowSpeed.node[175].veinsmobility  posx  ETV
vector 3076  Scenario2_SlowSpeed.node[175].veinsmobility  posy  ETV
vector 3082  Scenario2_SlowSpeed.node[176].veinsmobility  posx  ETV
vector 3083  Scenario2_SlowSpeed.node[176].veinsmobility  posy  ETV
vector 3001  Scenario2_SlowSpeed.node[164].veinsmobility  acceleration  ETV
vector 3002  Scenario2_SlowSpeed.node[164].veinsmobility  co2emission  ETV
vector 3008  Scenario2_SlowSpeed.node[165].veinsmobility  acceleration  ETV
vector 3009  Scenario2_SlowSpeed.node[165].veinsmobility  co2emission  ETV
vector 3015  Scenario2_SlowSpeed.node[166].veinsmobility  acceleration  ETV
vector 3016  Scenario2_SlowSpeed.node[166].veinsmobility  co2emission  ETV
vector 3022  Scenario2_SlowSpeed.node[167].veinsmobility  acceleration  ETV
vector 3023  Scenario2_SlowSpeed.node[167].veinsmobility  co2emission  ETV
vector 3029  Scenario2_SlowSpeed.node[168].veinsmobility  acceleration  ETV
vector 3030  Scenario2_SlowSpeed.node[168].veinsmobility  co2emission  ETV
vector 3036  Scenario2_SlowSpeed.node[169].veinsmobility  acceleration  ETV
vector 3037  Scenario2_SlowSpeed.node[169].veinsmobility  co2emission  ETV
vector 3043  Scenario2_SlowSpeed.node[170].veinsmobility  acceleration  ETV
vector 3044  Scenario2_SlowSpeed.node[170].veinsmobility  co2emission  ETV
vector 3050  Scenario2_SlowSpeed.node[171].veinsmobility  acceleration  ETV
vector 3051  Scenario2_SlowSpeed.node[171].veinsmobility  co2emission  ETV
vector 3056  Scenario2_SlowSpeed.node[172].veinsmobility  speed  ETV
vector 3063  Scenario2_SlowSpeed.node[173].veinsmobility  speed  ETV
vector 3089  Scenario2_SlowSpeed.node[177].veinsmobility  posx  ETV
vector 3090  Scenario2_SlowSpeed.node[177].veinsmobility  posy  ETV
vector 3096  Scenario2_SlowSpeed.node[178].veinsmobility  posx  ETV
vector 3097  Scenario2_SlowSpeed.node[178].veinsmobility  posy  ETV
vector 3103  Scenario2_SlowSpeed.node[179].veinsmobility  posx  ETV
vector 3104  Scenario2_SlowSpeed.node[179].veinsmobility  posy  ETV
vector 3110  Scenario2_SlowSpeed.node[180].veinsmobility  posx  ETV
vector 3111  Scenario2_SlowSpeed.node[180].veinsmobility  posy  ETV
vector 3117  Scenario2_SlowSpeed.node[181].veinsmobility  posx  ETV
vector 3118  Scenario2_SlowSpeed.node[181].veinsmobility  posy  ETV
vector 3124  Scenario2_SlowSpeed.node[182].veinsmobility  posx  ETV
vector 3125  Scenario2_SlowSpeed.node[182].veinsmobility  posy  ETV
vector 3131  Scenario2_SlowSpeed.node[183].veinsmobility  posx  ETV
vector 3132  Scenario2_SlowSpeed.node[183].veinsmobility  posy  ETV
vector 3138  Scenario2_SlowSpeed.node[184].veinsmobility  posx  ETV
vector 3139  Scenario2_SlowSpeed.node[184].veinsmobility  posy  ETV
vector 3145  Scenario2_SlowSpeed.node[185].veinsmobility  posx  ETV
vector 3146  Scenario2_SlowSpeed.node[185].veinsmobility  posy  ETV
vector 3057  Scenario2_SlowSpeed.node[172].veinsmobility  acceleration  ETV
vector 3058  Scenario2_SlowSpeed.node[172].veinsmobility  co2emission  ETV
vector 3064  Scenario2_SlowSpeed.node[173].veinsmobility  acceleration  ETV
vector 3065  Scenario2_SlowSpeed.node[173].veinsmobility  co2emission  ETV
vector 3070  Scenario2_SlowSpeed.node[174].veinsmobility  speed  ETV
vector 3077  Scenario2_SlowSpeed.node[175].veinsmobility  speed  ETV
vector 3084  Scenario2_SlowSpeed.node[176].veinsmobility  speed  ETV
vector 3152  Scenario2_SlowSpeed.node[186].veinsmobility  posx  ETV
vector 3153  Scenario2_SlowSpeed.node[186].veinsmobility  posy  ETV
vector 3159  Scenario2_SlowSpeed.node[187].veinsmobility  posx  ETV
vector 3160  Scenario2_SlowSpeed.node[187].veinsmobility  posy  ETV
vector 3071  Scenario2_SlowSpeed.node[174].veinsmobility  acceleration  ETV
vector 3072  Scenario2_SlowSpeed.node[174].veinsmobility  co2emission  ETV
vector 3078  Scenario2_SlowSpeed.node[175].veinsmobility  acceleration  ETV
vector 3079  Scenario2_SlowSpeed.node[175].veinsmobility  co2emission  ETV
vector 3085  Scenario2_SlowSpeed.node[176].veinsmobility  acceleration  ETV
vector 3086  Scenario2_SlowSpeed.node[176].veinsmobility  co2emission  ETV
vector 3091  Scenario2_SlowSpeed.node[177].veinsmobility  speed  ETV
vector 3098  Scenario2_SlowSpeed.node[178].veinsmobility  speed  ETV
vector 3105  Scenario2_SlowSpeed.node[179].veinsmobility  speed  ETV
vector 3112  Scenario2_SlowSpeed.node[180].veinsmobility  speed  ETV
vector 3119  Scenario2_SlowSpeed.node[181].veinsmobility  speed  ETV
vector 3126  Scenario2_SlowSpeed.node[182].veinsmobility  speed  ETV
vector 3133  Scenario2_SlowSpeed.node[183].veinsmobility  speed  ETV
vector 3140  Scenario2_SlowSpeed.node[184].veinsmobility  speed  ETV
vector 3147  Scenario2_SlowSpeed.node[185].veinsmobility  speed  ETV
vector 3166  Scenario2_SlowSpeed.node[188].veinsmobility  posx  ETV
vector 3167  Scenario2_SlowSpeed.node[188].veinsmobility  posy  ETV
vector 3173  Scenario2_SlowSpeed.node[189].veinsmobility  posx  ETV
vector 3174  Scenario2_SlowSpeed.node[189].veinsmobility  posy  ETV
vector 3180  Scenario2_SlowSpeed.node[190].veinsmobility  posx  ETV
vector 3181  Scenario2_SlowSpeed.node[190].veinsmobility  posy  ETV
vector 3092  Scenario2_SlowSpeed.node[177].veinsmobility  acceleration  ETV
vector 3093  Scenario2_SlowSpeed.node[177].veinsmobility  co2emission  ETV
vector 3099  Scenario2_SlowSpeed.node[178].veinsmobility  acceleration  ETV
vector 3100  Scenario2_SlowSpeed.node[178].veinsmobility  co2emission  ETV
vector 3106  Scenario2_SlowSpeed.node[179].veinsmobility  acceleration  ETV
vector 3107  Scenario2_SlowSpeed.node[179].veinsmobility  co2emission  ETV
vector 3113  Scenario2_SlowSpeed.node[180].veinsmobility  acceleration  ETV
vector 3114  Scenario2_SlowSpeed.node[180].veinsmobility  co2emission  ETV
vector 3120  Scenario2_SlowSpeed.node[181].veinsmobility  acceleration  ETV
vector 3121  Scenario2_SlowSpeed.node[181].veinsmobility  co2emission  ETV
vector 3127  Scenario2_SlowSpeed.node[182].veinsmobility  acceleration  ETV
vector 3128  Scenario2_SlowSpeed.node[182].veinsmobility  co2emission  ETV
vector 3134  Scenario2_SlowSpeed.node[183].veinsmobility  acceleration  ETV
vector 3135  Scenario2_SlowSpeed.node[183].veinsmobility  co2emission  ETV
vector 3141  Scenario2_SlowSpeed.node[184].veinsmobility  acceleration  ETV
vector 3142  Scenario2_SlowSpeed.node[184].veinsmobility  co2emission  ETV
vector 3148  Scenario2_SlowSpeed.node[185].veinsmobility  acceleration  ETV
vector 3149  Scenario2_SlowSpeed.node[185].veinsmobility  co2emission  ETV
vector 3154  Scenario2_SlowSpeed.node[186].veinsmobility  speed  ETV
vector 3161  Scenario2_SlowSpeed.node[187].veinsmobility  speed  ETV
vector 3187  Scenario2_SlowSpeed.node[191].veinsmobility  posx  ETV
vector 3188  Scenario2_SlowSpeed.node[191].veinsmobility  posy  ETV
vector 3194  Scenario2_SlowSpeed.node[192].veinsmobility  posx  ETV
vector 3195  Scenario2_SlowSpeed.node[192].veinsmobility  posy  ETV
vector 3201  Scenario2_SlowSpeed.node[193].veinsmobility  posx  ETV
vector 3202  Scenario2_SlowSpeed.node[193].veinsmobility  posy  ETV
vector 3208  Scenario2_SlowSpeed.node[194].veinsmobility  posx  ETV
vector 3209  Scenario2_SlowSpeed.node[194].veinsmobility  posy  ETV
vector 3215  Scenario2_SlowSpeed.node[195].veinsmobility  posx  ETV
vector 3216  Scenario2_SlowSpeed.node[195].veinsmobility  posy  ETV
vector 3222  Scenario2_SlowSpeed.node[196].veinsmobility  posx  ETV
vector 3223  Scenario2_SlowSpeed.node[196].veinsmobility  posy  ETV
vector 3155  Scenario2_SlowSpeed.node[186].veinsmobility  acceleration  ETV
vector 3156  Scenario2_SlowSpeed.node[186].veinsmobility  co2emission  ETV
vector 3162  Scenario2_SlowSpeed.node[187].veinsmobility  acceleration  ETV
vector 3163  Scenario2_SlowSpeed.node[187].veinsmobility  co2emission  ETV
vector 3168  Scenario2_SlowSpeed.node[188].veinsmobility  speed  ETV
vector 3175  Scenario2_SlowSpeed.node[189].veinsmobility  speed  ETV
vector 3182  Scenario2_SlowSpeed.node[190].veinsmobility  speed  ETV
vector 3229  Scenario2_SlowSpeed.node[197].veinsmobility  posx  ETV
vector 3230  Scenario2_SlowSpeed.node[197].veinsmobility  posy  ETV
vector 3236  Scenario2_SlowSpeed.node[198].veinsmobility  posx  ETV
vector 3237  Scenario2_SlowSpeed.node[198].veinsmobility  posy  ETV
vector 3243  Scenario2_SlowSpeed.node[199].veinsmobility  posx  ETV
vector 3244  Scenario2_SlowSpeed.node[199].veinsmobility  posy  ETV
vector 3250  Scenario2_SlowSpeed.node[200].veinsmobility  posx  ETV
vector 3251  Scenario2_SlowSpeed.node[200].veinsmobility  posy  ETV
vector 3169  Scenario2_SlowSpeed.node[188].veinsmobility  acceleration  ETV
vector 3170  Scenario2_SlowSpeed.node[188].veinsmobility  co2emission  ETV
vector 3176  Scenario2_SlowSpeed.node[189].veinsmobility  acceleration  ETV
vector 3177  Scenario2_SlowSpeed.node[189].veinsmobility  co2emission  ETV
vector 3183  Scenario2_SlowSpeed.node[190].veinsmobility  acceleration  ETV
vector 3184  Scenario2_SlowSpeed.node[190].veinsmobility  co2emission  ETV
vector 3189  Scenario2_SlowSpeed.node[191].veinsmobility  speed  ETV
vector 3196  Scenario2_SlowSpeed.node[192].veinsmobility  speed  ETV
vector 3203  Scenario2_SlowSpeed.node[193].veinsmobility  speed  ETV
vector 3210  Scenario2_SlowSpeed.node[194].veinsmobility  speed  ETV
vector 3217  Scenario2_SlowSpeed.node[195].veinsmobility  speed  ETV
vector 3224  Scenario2_SlowSpeed.node[196].veinsmobility  speed  ETV
vector 3257  Scenario2_SlowSpeed.node[201].veinsmobility  posx  ETV
vector 3258  Scenario2_SlowSpeed.node[201].veinsmobility  posy  ETV
vector 3264  Scenario2_SlowSpeed.node[202].veinsmobility  posx  ETV
vector 3265  Scenario2_SlowSpeed.node[202].veinsmobility  posy  ETV
vector 3271  Scenario2_SlowSpeed.node[203].veinsmobility  posx  ETV
vector 3272  Scenario2_SlowSpeed.node[203].veinsmobility  posy  ETV
vector 3278  Scenario2_SlowSpeed.node[204].veinsmobility  posx  ETV
vector 3279  Scenario2_SlowSpeed.node[204].veinsmobility  posy  ETV
vector 3285  Scenario2_SlowSpeed.node[205].veinsmobility  posx  ETV
vector 3286  Scenario2_SlowSpeed.node[205].veinsmobility  posy  ETV
vector 3190  Scenario2_SlowSpeed.node[191].veinsmobility  acceleration  ETV
vector 3191  Scenario2_SlowSpeed.node[191].veinsmobility  co2emission  ETV
vector 3197  Scenario2_SlowSpeed.node[192].veinsmobility  acceleration  ETV
vector 3198  Scenario2_SlowSpeed.node[192].veinsmobility  co2emission  ETV
vector 3204  Scenario2_SlowSpeed.node[193].veinsmobility  acceleration  ETV
vector 3205  Scenario2_SlowSpeed.node[193].veinsmobility  co2emission  ETV
vector 3211  Scenario2_SlowSpeed.node[194].veinsmobility  acceleration  ETV
vector 3212  Scenario2_SlowSpeed.node[194].veinsmobility  co2emission  ETV
vector 3218  Scenario2_SlowSpeed.node[195].veinsmobility  acceleration  ETV
vector 3219  Scenario2_SlowSpeed.node[195].veinsmobility  co2emission  ETV
vector 3225  Scenario2_SlowSpeed.node[196].veinsmobility  acceleration  ETV
vector 3226  Scenario2_SlowSpeed.node[196].veinsmobility  co2emission  ETV
vector 3231  Scenario2_SlowSpeed.node[197].veinsmobility  speed  ETV
vector 3238  Scenario2_SlowSpeed.node[198].veinsmobility  speed  ETV
vector 3245  Scenario2_SlowSpeed.node[199].veinsmobility  speed  ETV
vector 3252  Scenario2_SlowSpeed.node[200].veinsmobility  speed  ETV
vector 3292  Scenario2_SlowSpeed.node[206].veinsmobility  posx  ETV
vector 3293  Scenario2_SlowSpeed.node[206].veinsmobility  posy  ETV
vector 3299  Scenario2_SlowSpeed.node[207].veinsmobility  posx  ETV
vector 3300  Scenario2_SlowSpeed.node[207].veinsmobility  posy  ETV
vector 3306  Scenario2_SlowSpeed.node[208].veinsmobility  posx  ETV
vector 3307  Scenario2_SlowSpeed.node[208].veinsmobility  posy  ETV
vector 3313  Scenario2_SlowSpeed.node[209].veinsmobility  posx  ETV
vector 3314  Scenario2_SlowSpeed.node[209].veinsmobility  posy  ETV
vector 3320  Scenario2_SlowSpeed.node[210].veinsmobility  posx  ETV
vector 3321  Scenario2_SlowSpeed.node[210].veinsmobility  posy  ETV
vector 3327  Scenario2_SlowSpeed.node[211].veinsmobility  posx  ETV
vector 3328  Scenario2_SlowSpeed.node[211].veinsmobility  posy  ETV
vector 3334  Scenario2_SlowSpeed.node[212].veinsmobility  posx  ETV
vector 3335  Scenario2_SlowSpeed.node[212].veinsmobility  posy  ETV
vector 3341  Scenario2_SlowSpeed.node[213].veinsmobility  posx  ETV
vector 3342  Scenario2_SlowSpeed.node[213].veinsmobility  posy  ETV
vector 3232  Scenario2_SlowSpeed.node[197].veinsmobility  acceleration  ETV
vector 3233  Scenario2_SlowSpeed.node[197].veinsmobility  co2emission  ETV
vector 3239  Scenario2_SlowSpeed.node[198].veinsmobility  acceleration  ETV
vector 3240  Scenario2_SlowSpeed.node[198].veinsmobility  co2emission  ETV
vector 3246  Scenario2_SlowSpeed.node[199].veinsmobility  acceleration  ETV
vector 3247  Scenario2_SlowSpeed.node[199].veinsmobility  co2emission  ETV
vector 3253  Scenario2_SlowSpeed.node[200].veinsmobility  acceleration  ETV
vector 3254  Scenario2_SlowSpeed.node[200].veinsmobility  co2emission  ETV
vector 3259  Scenario2_SlowSpeed.node[201].veinsmobility  speed  ETV
vector 3266  Scenario2_SlowSpeed.node[202].veinsmobility  speed  ETV
vector 3273  Scenario2_SlowSpeed.node[203].veinsmobility  speed  ETV
vector 3280  Scenario2_SlowSpeed.node[204].veinsmobility  speed  ETV
vector 3287  Scenario2_SlowSpeed.node[205].veinsmobility  speed  ETV
vector 3348  Scenario2_SlowSpeed.node[214].veinsmobility  posx  ETV
vector 3349  Scenario2_SlowSpeed.node[214].veinsmobility  posy  ETV
vector 3260  Scenario2_SlowSpeed.node[201].veinsmobility  acceleration  ETV
vector 3261  Scenario2_SlowSpeed.node[201].veinsmobility  co2emission  ETV
vector 3267  Scenario2_SlowSpeed.node[202].veinsmobility  acceleration  ETV
vector 3268  Scenario2_SlowSpeed.node[202].veinsmobility  co2emission  ETV
vector 3274  Scenario2_SlowSpeed.node[203].veinsmobility  acceleration  ETV
vector 3275  Scenario2_SlowSpeed.node[203].veinsmobility  co2emission  ETV
vector 3281  Scenario2_SlowSpeed.node[204].veinsmobility  acceleration  ETV
vector 3282  Scenario2_SlowSpeed.node[204].veinsmobility  co2emission  ETV
vector 3288  Scenario2_SlowSpeed.node[205].veinsmobility  acceleration  ETV
vector 3289  Scenario2_SlowSpeed.node[205].veinsmobility  co2emission  ETV
vector 3294  Scenario2_SlowSpeed.node[206].veinsmobility  speed  ETV
vector 3301  Scenario2_SlowSpeed.node[207].veinsmobility  speed  ETV
vector 3308  Scenario2_SlowSpeed.node[208].veinsmobility  speed  ETV
vector 3315  Scenario2_SlowSpeed.node[209].veinsmobility  speed  ETV
vector 3322  Scenario2_SlowSpeed.node[210].veinsmobility  speed  ETV
vector 3329  Scenario2_SlowSpeed.node[211].veinsmobility  speed  ETV
vector 3336  Scenario2_SlowSpeed.node[212].veinsmobility  speed  ETV
vector 3343  Scenario2_SlowSpeed.node[213].veinsmobility  speed  ETV
vector 3355  Scenario2_SlowSpeed.node[215].veinsmobility  posx  ETV
vector 3356  Scenario2_SlowSpeed.node[215].veinsmobility  posy  ETV
vector 3362  Scenario2_SlowSpeed.node[216].veinsmobility  posx  ETV
vector 3363  Scenario2_SlowSpeed.node[216].veinsmobility  posy  ETV
vector 3369  Scenario2_SlowSpeed.node[217].veinsmobility  posx  ETV
vector 3370  Scenario2_SlowSpeed.node[217].veinsmobility  posy  ETV
vector 3295  Scenario2_SlowSpeed.node[206].veinsmobility  acceleration  ETV
vector 3296  Scenario2_SlowSpeed.node[206].veinsmobility  co2emission  ETV
vector 3302  Scenario2_SlowSpeed.node[207].veinsmobility  acceleration  ETV
vector 3303  Scenario2_SlowSpeed.node[207].veinsmobility  co2emission  ETV
vector 3309  Scenario2_SlowSpeed.node[208].veinsmobility  acceleration  ETV
vector 3310  Scenario2_SlowSpeed.node[208].veinsmobility  co2emission  ETV
vector 3316  Scenario2_SlowSpeed.node[209].veinsmobility  acceleration  ETV
vector 3317  Scenario2_SlowSpeed.node[209].veinsmobility  co2emission  ETV
vector 3323  Scenario2_SlowSpeed.node[210].veinsmobility  acceleration  ETV
vector 3324  Scenario2_SlowSpeed.node[210].veinsmobility  co2emission  ETV
vector 3330  Scenario2_SlowSpeed.node[211].veinsmobility  acceleration  ETV
vector 3331  Scenario2_SlowSpeed.node[211].veinsmobility  co2emission  ETV
vector 3337  Scenario2_SlowSpeed.node[212].veinsmobility  acceleration  ETV
vector 3338  Scenario2_SlowSpeed.node[212].veinsmobility  co2emission  ETV
vector 3344  Scenario2_SlowSpeed.node[213].veinsmobility  acceleration  ETV
vector 3345  Scenario2_SlowSpeed.node[213].veinsmobility  co2emission  ETV
vector 3350  Scenario2_SlowSpeed.node[214].veinsmobility  speed  ETV
vector 3351  Scenario2_SlowSpeed.node[214].veinsmobility  acceleration  ETV
vector 3352  Scenario2_SlowSpeed.node[214].veinsmobility  co2emission  ETV
vector 3357  Scenario2_SlowSpeed.node[215].veinsmobility  speed  ETV
vector 3364  Scenario2_SlowSpeed.node[216].veinsmobility  speed  ETV
vector 3371  Scenario2_SlowSpeed.node[217].veinsmobility  speed  ETV
vector 3376  Scenario2_SlowSpeed.node[218].veinsmobility  posx  ETV
vector 3377  Scenario2_SlowSpeed.node[218].veinsmobility  posy  ETV
vector 3383  Scenario2_SlowSpeed.node[219].veinsmobility  posx  ETV
vector 3384  Scenario2_SlowSpeed.node[219].veinsmobility  posy  ETV
vector 3390  Scenario2_SlowSpeed.node[220].veinsmobility  posx  ETV
vector 3391  Scenario2_SlowSpeed.node[220].veinsmobility  posy  ETV
vector 3358  Scenario2_SlowSpeed.node[215].veinsmobility  acceleration  ETV
vector 3359  Scenario2_SlowSpeed.node[215].veinsmobility  co2emission  ETV
vector 3365  Scenario2_SlowSpeed.node[216].veinsmobility  acceleration  ETV
vector 3366  Scenario2_SlowSpeed.node[216].veinsmobility  co2emission  ETV
[...]
3657	1624457 99 22630961 23922500 58 60 3 28.457887397627 31.475046819166 88.39082161442 2610.3812825407
3656	1624556 72 22630961 23922500 58 60 3 516.75 516.75 1550.25 801091.6875
3380	1624628 853 9320164 23922500 35 60 26 1.2730428605914 4.0747640133238 45.602565086345 88.341893084948
3379	1625481 906 9320164 23922500 35 60 26 -0.13723579919466 1.4391312803386 3.8078681999356 4.0886591906055
3378	1626387 885 8810417 23922500 34 60 27 4.1029436217477 7.9818501247629 203.74438487727 1559.6842679676
3377	1627272 917 8304905 23922500 33 60 28 28.694287837531 222.10154335612 3275.7938028655 488585.86025246
3376	1628189 668 8304905 23922500 33 60 28 516.75 520.05 14548.2 7558970.31
3667	1628857 33 23922500 23922500 60 60 1 1.2617301842183 1.2617301842183 1.2617301842183 1.5919630577676
3666	1628890 36 23922500 23922500 60 60 1 -0.028879299950528 -0.028879299950528 -0.028879299950528 0.00083401396563258
3665	1628926 66 23276722 23922500 59 60 2 3.5735053343019 3.6023846342524 7.1758899685543 25.747115427382
3664	1628992 99 22630961 23922500 58 60 3 28.271074511139 30.985851892646 87.528000914923 2558.6303255417
3663	1629091 72 22630961 23922500 58 60 3 513.45 513.45 1540.35 790892.7075
3678	1629163 33 23922500 23922500 60 60 1 28.652939694611 28.652939694611 28.652939694611 820.99095314303
3677	1629196 24 23922500 23922500 60 60 1 516.75 516.75 516.75 267030.5625
3685	1629220 33 23922500 23922500 60 60 1 28.470390807098 28.470390807098 28.470390807098 810.5631527089
3684	1629253 24 23922500 23922500 60 60 1 513.45 513.45 513.45 263630.9025
3387	1629277 764 9320164 23922500 35 60 26 0.973 5.5926346333021 41.588660709333 93.169014179425
3386	1630041 910 9320164 23922500 35 60 26 -1.2975331204092 2.1063270979093 -3.1998903716818 15.584842485433
3385	1630951 889 8810417 23922500 34 60 27 0.67545539597567 7.9960539912386 166.43701594233 1202.8049708037
3384	1631840 918 8304905 23922500 33 60 28 28.434812376214 194.60727590959 3258.8715699069 471696.38020094
3383	1632758 668 8304905 23922500 33 60 28 513.45 516.75 14455.8 7463257.11
3401	1633426 744 9836477 23922500 36 60 25 0.973 5.2670395936453 41.916592733703 95.718831083069
3400	1634170 873 9836477 23922500 36 60 25 -1.3196045372723 1.9746456040609 -1.1621280957445 17.572446391431
3399	1635043 853 9320164 23922500 35 60 26 1.1233418559845 7.9896079159458 163.5210081238 1170.8490553469
3398	1635896 864 8810417 23922500 34 60 27 27.6 189.37092279435 2911.2706958776 398203.50101781
3397	1636760 645 8810417 23922500 34 60 27 513.45 516.75 13945.65 7203025.8675
3408	1637405 781 10360617 23922500 37 60 24 0.973 4.1796175524264 43.305666433686 91.037369832861
3407	1638186 846 10360617 23922500 37 60 24 -0.75560036432335 1.6222202832097 3.8971057898841 6.68957397689
3406	1639032 822 9836477 23922500 36 60 25 4.0486199408783 7.9995868318225 185.26178246451 1404.8619745242
3405	1639854 851 9320164 23922500 35 60 26 28.681997266265 203.65422287391 2780.8709256874 378961.29266898
3404	1640705 622 9320164 23922500 35 60 26 513.45 520.05 13485 6994225.125
3422	1641327 755 10888284 23922500 38 60 23 1.3933126448726 3.4349887523801 42.54459754249 87.299606613566
3421	1642082 800 10888284 23922500 38 60 23 -0.075560863476713 1.8313204539334 5.4174650894592 6.6920046060894
3420	1642882 789 10360617 23922500 37 60 24 2.5789364037176 7.9964014931768 175.85989154261 1331.828882901
3419	1643671 823 9836477 23922500 36 60 25 27.624944126717 192.01500341328 2494.7007402928 319656.39554947
3418	1644494 599 9836477 23922500 36 60 25 516.75 520.05 12984.75 6744192.8625
3429	1645093 698 10888284 23922500 38 60 23 0.973 4.7712561845642 40.047739013358 94.026370488655
3428	1645791 797 10888284 23922500 38 60 23 -1.3312501498476 2.0882229148387 -0.23012970421614 17.23585473791
3427	1646588 791 10360617 23922500 37 60 24 2.0169032476207 7.9921016161819 158.0219860993 1140.0842679949
3426	1647379 800 9836477 23922500 36 60 25 27.6 182.67007089243 2532.3577798711 325899.81262178
3425	1648179 599 9836477 23922500 36 60 25 513.45 516.75 12902.25 6658765.7625
3450	1648778 673 11964770 23922500 40 60 21 0.973 4.6225184457302 41.666564406469 104.65859485772
3449	1649451 736 11964770 23922500 40 60 21 -1.2147767118637 2.0400197769876 5.3352403213719 12.737119791837
3448	1650187 725 11424873 23922500 39 60 22 2.6137617480934 7.9989400875825 161.2396085201 1220.2603020817
3447	1650912 757 10888284 23922500 38 60 23 27.674483005159 177.90664311633 2191.700445241 264792.68536034
3446	1651669 552 10888284 23922500 38 60 23 516.75 520.05 11891.85 6148545.8175
2526	1652221 1655 583682 23922500 9 60 52 0.973 4.6535251672144 91.045349158458 182.18184484915
2525	1653876 1793 583682 23922500 9 60 52 -2.6845724140177 1.9904540126794 5.0551536820512 18.809447350101
2524	1655669 1709 475323 23922500 8 60 53 2.8889755843128 7.9905600157124 399.46545499379 3064.5856456356
2523	1657378 1257 379224 23922500 7 60 54 516.75 520.05 28076.1 14597565.255
2522	1658635 1737 379224 23922500 7 60 54 633.29939361219 1022.2497393385 45407.725890922 38956378.960636
2568	1660372 1651 703035 23922500 10 60 51 1.2927121137497 4.3018867535669 85.863071226398 157.89588893366
2567	1662023 1762 703035 23922500 10 60 51 -0.12757810949581 1.9671037692274 5.3434974163485 8.1457024730546
2566	1663785 1678 583682 23922500 9 60 52 2.6314719451947 7.9977919364255 400.25412622116 3121.5127379176
2565	1665463 1236 475323 23922500 8 60 53 516.75 516.75 27387.75 14152619.8125
2564	1666699 1705 475323 23922500 8 60 53 633.24200006076 1022.374272896 44437.376430931 38017143.278597
3163	1668404 1141 4896177 23922500 26 60 35 1.3377536560005 4.6333749417953 61.667107016273 128.41107526288
3162	1669545 1225 4896177 23922500 26 60 35 -0.10389619516907 1.9747542788717 5.554275687098 10.473263069039
3161	1670770 1172 4511738 23922500 25 60 36 2.3436994820428 7.9991504234332 274.85463238767 2142.3475308313
3160	1671942 875 4139877 23922500 24 60 37 516.75 516.75 19119.75 9880130.8125
3159	1672817 1201 4139877 23922500 24 60 37 758.8345278415 1022.3741771284 33313.71044395 30247959.057261
3226	1674018 1074 5728746 23922500 28 60 33 1.3506645371567 4.3460370661688 58.172097260954 119.64237247272
3225	1675092 1157 5728746 23922500 28 60 33 -0.097186327103991 1.8418329735985 5.1072473805603 8.7995960808009
3224	1676249 1106 5304192 23922500 27 60 34 2.8134975986187 7.9955261904281 260.03336687994 2025.233212356
3223	1677355 829 4896177 23922500 26 60 35 516.75 516.75 18086.25 9346069.6875
3222	1678184 1141 4896177 23922500 26 60 35 773.28871069614 1022.2530401932 31744.498995832 29005978.437465
3289	1679325 1014 6654452 23922500 30 60 31 1.3946560733444 4.8531438637756 54.779443207407 113.59712408252
3288	1680339 1088 6654452 23922500 30 60 31 -0.0744210230303 1.9680130584724 4.6924065345337 8.1773364831871
3287	1681427 1041 6174618 23922500 29 60 32 3.2469630251106 7.9933529214142 245.35058373355 1909.4219966929
3286	1682468 783 5728746 23922500 28 60 33 516.75 516.75 17052.75 8812008.5625
3285	1683251 1077 5728746 23922500 28 60 33 787.09133475484 1022.0358551189 30125.935770844 27681928.178158
3352	1684328 951 7809913 23922500 32 60 29 1.3358839088372 5.2301078470265 51.274563609668 111.50628884333
3351	1685279 1017 7809913 23922500 32 60 29 -0.10502778804395 2.1229405618925 4.099710371431 8.4172437371614
3350	1686296 983 7137529 23922500 31 60 30 3.7791641682693 7.9978283363092 231.81464370645 1811.4222913403
3349	1687279 737 6654452 23922500 30 60 31 516.75 516.75 16019.25 8277947.4375
3348	1688016 1012 6654452 23922500 30 60 31 800.61358506122 1021.7208381607 28478.569731747 26311734.10547
3373	1689028 919 8304905 23922500 33 60 28 1.3283204128786 4.9285418380234 51.000766239353 113.22034015097
3372	1689947 988 8304905 23922500 33 60 28 -0.10906240414828 2.0528467223593 5.6589411446241 10.919354811968
3371	1690935 946 7809913 23922500 32 60 29 2.2479602316652 7.9989772554557 218.93368046665 1697.1944958209
3370	1691881 714 7137529 23922500 31 60 30 516.75 516.75 15502.5 8010916.875
3369	1692595 963 7137529 23922500 31 60 30 814.69048169759 1022.4 27844.555203152 25975723.80493
3394	1693558 854 9320164 23922500 35 60 26 1.4410228326844 4.4039321882454 47.517158767239 104.41533335525
3393	1694412 911 9320164 23922500 35 60 26 -0.050805769851431 1.9034834017511 5.2135522358368 9.2530859524943
3392	1695323 884 8810417 23922500 34 60 27 2.7068462070435 7.979859879103 204.25356199365 1582.5217789901
3391	1696207 668 8304905 23922500 33 60 28 516.75 516.75 14469 7476855.75
3390	1696875 917 8304905 23922500 33 60 28 829.32764006336 1022.3251378981 26175.312797502 24576122.165577
3415	1697792 788 10360617 23922500 37 60 24 1.3502741485504 4.8096964690341 44.445267049999 100.09846814043
3414	1698580 844 10360617 23922500 37 60 24 -0.097279233681038 2.1440804687957 5.0258468613736 9.349908659224
3413	1699424 823 9836477 23922500 36 60 25 2.9468768290492 7.9929025573353 189.6361854168 1469.2025671436
3412	1700247 622 9320164 23922500 35 60 26 516.75 516.75 13435.5 6942794.625
3411	1700869 855 9320164 23922500 35 60 26 843.18925219274 1022.1567317041 24463.413677553 23103042.95651
3436	1701724 724 11424873 23922500 39 60 22 1.368436077711 5.5161334051186 40.642181844207 94.736740360277
3435	1702448 778 11424873 23922500 39 60 22 -0.087739988325629 2.1721226904495 4.303245097681 8.3866903744427
3434	1703226 757 10888284 23922500 38 60 23 3.5861892887036 7.9953750823624 175.29474391256 1358.8994077687
3433	1703983 576 10360617 23922500 37 60 24 516.75 516.75 12402 6408733.5
3432	1704559 791 10360617 23922500 37 60 24 857.06139048571 1021.8686589944 22727.373077508 21589354.391972
3457	1705350 658 12514755 23922500 41 60 20 1.3456831451795 5.1781565733529 37.363805972284 89.495171943266
3456	1706008 705 12514755 23922500 41 60 20 -0.10011067064712 2.1079992938135 4.0482825762574 8.1853848008005
3455	1706713 691 11964770 23922500 40 60 21 3.8430550526473 7.995051635541 160.51003851377 1245.7509654688
3454	1707404 528 11424873 23922500 39 60 22 516.75 516.75 11368.5 5874672.375
3453	1707932 724 11424873 23922500 39 60 22 871.35069478281 1021.3213983099 20972.090238792 20043574.333826
3478	1708656 625 13065694 23922500 42 60 19 1.352881929396 4.7035873041182 37.076197985538 91.258545283596
3477	1709281 667 13065694 23922500 42 60 19 -0.095872051934712 2.063338283808 5.5083795603077 10.670972296277
3476	1709948 656 12514755 23922500 41 60 20 2.413962769153 7.9979035524908 148.05058305169 1134.6919523117
3475	1710604 504 11964770 23922500 40 60 21 516.75 516.75 10851.75 5607641.8125
3474	1711108 688 11964770 23922500 40 60 21 885.15068257121 1022.374508611 20209.777725704 19491779.857682
2645	1711796 1587 975713 23922500 12 60 49 1.3659850042094 4.7257166323089 82.60738155725 155.90557731123
2644	1713383 1702 975713 23922500 12 60 49 -0.08917949794326 1.9689993067295 4.8692074739757 8.1990915221785
2643	1715085 1617 836808 23922500 11 60 50 3.0832945614717 7.9981428708136 387.57314820509 3036.6134100024
2642	1716702 1194 703035 23922500 10 60 51 516.75 516.75 26354.25 13618558.6875
2641	1717896 1648 703035 23922500 10 60 51 645.18727724189 1022.1568547006 42983.4971206 36908036.253262
3499	1719544 561 14187929 23922500 44 60 17 1.3160847619555 4.8397165641474 33.571437478332 82.838857137915
3498	1720105 594 14187929 23922500 44 60 17 -0.11541153720347 2.0580967725348 5.0620357823754 9.3820157486644
3497	1720699 592 13626519 23922500 43 60 18 2.8286224088715 7.993497130468 133.46665800736 1021.204271946
3496	1721291 456 13065694 23922500 42 60 19 516.75 516.75 9818.25 5073580.6875
3495	1721747 625 13065694 23922500 42 60 19 899.47922166883 1022.2511740252 18406.740449832 17863092.276983
3520	1722372 493 15331742 23922500 46 60 15 1.4089435992299 4.2513574275189 30.267530499618 74.393745605221
3519	1722865 522 15331742 23922500 46 60 15 -0.066997385302093 1.8596300453087 4.8484131949391 7.8378568476321
3518	1723387 525 14759169 23922500 45 60 16 3.1421670057652 7.9905802007043 117.83122093994 895.61197331203
3517	1723912 408 14187929 23922500 44 60 17 516.75 516.75 8784.75 4539519.5625
3516	1724320 557 14187929 23922500 44 60 17 914.719177111 1022.0341557703 16589.05329592 16209629.630565
3541	1724877 429 16496225 23922500 48 60 13 1.4699081643934 5.1391678794012 26.660592854199 70.049539028887
3540	1725306 456 16496225 23922500 48 60 13 -0.034778809931595 1.9862680430664 4.1981210479779 7.4003510366799
3539	1725762 460 15914165 23922500 47 60 14 3.761397941966 7.9757891321974 104.20784060717 795.36984844339
3538	1726222 360 15331742 23922500 46 60 15 516.75 516.75 7751.25 4005458.4375
3537	1726582 491 15331742 23922500 46 60 15 928.02030897448 1021.714477981 14721.5582578 14462998.40993
3562	1727073 362 17681974 23922500 50 60 11 1.3990455709483 5.0623566652151 23.438294062997 67.112501861758
3561	1727435 390 17681974 23922500 50 60 11 -0.072106652455404 2.0655698409374 3.9465905718298 7.6866913988787
3560	1727825 395 17087898 23922500 49 60 12 4.0260105867729 7.9726011586026 89.342520053773 680.98535828851
3559	1728220 312 16496225 23922500 48 60 13 516.75 516.75 6717.75 3471397.3125
3558	1728532 427 16496225 23922500 48 60 13 942.53822464774 1021.3508382545 12842.375781842 12695910.315189
3569	1728959 329 18283381 23922500 51 60 10 1.3714073920576 4.2817428420183 23.044136167596 67.620583122075
3568	1729288 350 18283381 23922500 51 60 10 -0.086347132627853 2.2386231102981 5.3504008698418 10.145520617751
3567	1729638 363 17681974 23922500 50 60 11 2.5308302897865 7.9675782922562 77.253992650879 574.64267690431
3566	1730001 288 17087898 23922500 49 60 12 516.75 516.75 6201 3204366.75
3565	1730289 392 17087898 23922500 49 60 12 956.20696977156 1022.374318342 11953.900378901 11914208.399584
3590	1730681 259 19498331 23922500 53 60 8 1.443684424918 4.5643913428143 19.564752920137 60.046039271099
3589	1730940 278 19498331 23922500 53 60 8 -0.048595910265576 1.9453869137843 4.9641518412467 8.8283699503494
3588	1731218 296 18887269 23922500 52 60 9 2.9126975969708 7.952526715023 62.043528905134 454.02876695494
3587	1731514 240 18283381 23922500 51 60 10 516.75 516.75 5167.5 2670305.625
3586	1731754 330 18283381 23922500 51 60 10 970.79575954708 1022.1521930516 10023.950834844 10051164.990753
3611	1732084 197 20735138 23922500 55 60 6 1.4981084777848 5.1611457167486 16.200522167199 55.680594274112
3610	1732281 206 20735138 23922500 55 60 6 -0.021122020371258 2.0232608730393 4.4620626178859 8.2762581956994
3609	1732487 229 20113403 23922500 54 60 7 3.4851781942639 7.9488925908343 48.212323825948 350.24431149358
3608	1732716 192 19498331 23922500 53 60 8 516.75 516.75 4134 2136244.5
3607	1732908 264 19498331 23922500 53 60 8 984.41170049272 1021.9124959879 8063.1296734368 8128181.570176
3632	1733172 132 21995967 23922500 57 60 4 1.4976983545262 5.4185271340268 12.719267239768 50.479985692569
3631	1733304 136 21995967 23922500 57 60 4 -0.021444639787077 2.0778317531408 4.0696254404964 7.6993274712695
3630	1733440 165 21360515 23922500 56 60 5 3.8615547239218 7.9526248042053 33.205697489731 233.80850416712
3629	1733605 144 20735138 23922500 55 60 6 516.75 516.75 3100.5 1602183.375
3628	1733749 196 20735138 23922500 55 60 6 999.00009756689 1021.5503407676 6081.4013331274 6164315.9623809
3653	1733945 99 22630961 23922500 58 60 3 3.2027258744572 5.1752666637139 12.730751709568 55.987350471646
3652	1734044 98 22630961 23922500 58 60 3 1.8880755992827 1.9927504697232 5.7903238277989 11.182065594024
3651	1734142 132 21995967 23922500 57 60 4 2.1940109600276 7.9843347878265 20.378113655219 122.56644599616
3650	1734274 120 21360515 23922500 56 60 5 516.75 516.75 2583.75 1335152.8125
3649	1734394 146 21360515 23922500 56 60 5 1012.6768161246 1022.4 5096.498596908 5194928.030071
3674	1734540 33 23922500 23922500 60 60 1 3.4697538803579 3.4697538803579 3.4697538803579 12.039191990259
3673	1734573 33 23922500 23922500 60 60 1 1.9227693590289 1.9227693590289 1.9227693590289 3.6970420080204
3672	1734606 66 23276722 23922500 59 60 2 2.6719666774688 4.5947360364977 7.2667027139664 28.251005170594
3671	1734672 72 22630961 23922500 58 60 3 516.75 516.75 1550.25 801091.6875
3670	1734744 99 22630961 23922500 58 60 3 1020.5885026063 1022.3242891812 3065.2370809686 3131894.7961518
2722	1734843 1522 1309037 23922500 14 60 47 1.3526508318672 4.918207323482 79.169155370624 151.67299050081
2721	1736365 1649 1309037 23922500 14 60 47 -0.096071357829497 2.0827118595131 4.3978437612832 8.1219390577201
2720	1738014 1552 1137676 23922500 13 60 48 3.5142798499626 7.9931438549119 373.3181239894 2927.5285324861
2719	1739566 1150 975713 23922500 12 60 49 516.75 516.75 25320.75 13084497.5625
2718	1740716 1582 975713 23922500 12 60 49 658.83983717356 1021.8886162842 41581.235117207 35890995.081427
3692	1742298 24 23922500 23922500 60 60 1 516.75 516.75 516.75 267030.5625
3691	1742322 33 23922500 23922500 60 60 1 1022.1498830365 1022.1498830365 1022.1498830365 1044790.3833915
2834	1742355 1458 1744556 23922500 16 60 45 1.3433057250822 5.0747645152023 76.094373444042 147.6272761817
2833	1743813 1569 1744556 23922500 16 60 45 -0.10102174291853 2.0022056185734 4.2933593018365 7.96121011398
2832	1745382 1492 1517880 23922500 15 60 46 3.6742379713512 7.9989194545639 358.45650790806 2815.7679905212
2831	1746874 1105 1309037 23922500 14 60 47 516.75 516.75 24287.25 12550436.4375
2830	1747979 1527 1309037 23922500 14 60 47 673.66510470612 1021.5523444391 40212.416123901 34939146.255437
2876	1749506 1422 1988318 23922500 17 60 44 1.3212188124988 5.1521139933009 75.68100848143 151.87217989964
2875	1750928 1534 1988318 23922500 17 60 44 -0.11284155444475 2.0120395706035 5.7674598861254 10.932035213065
2874	1752462 1460 1744556 23922500 16 60 45 2.1613891165237 7.9981589262839 345.21623067227 2698.6797404721
2873	1753922 1082 1517880 23922500 15 60 46 516.75 516.75 23770.5 12283405.875
2872	1755004 1472 1517880 23922500 15 60 46 688.53439459109 1022.4 39834.731906005 34989404.511403
2946	1756476 1366 2523352 23922500 19 60 42 1.3100063082152 4.7180425105343 72.447356552333 144.46272171131
2945	1757842 1465 2523352 23922500 19 60 42 -0.11847667778144 2.2206596516678 5.3555884597859 10.214714650149
2944	1759307 1395 2248276 23922500 18 60 43 2.6234599548635 7.99290909976 331.59620298426 2594.0422400478
2943	1760702 1036 1988318 23922500 17 60 44 516.75 516.75 22737 11749344.75
2942	1761738 1426 1988318 23922500 17 60 44 701.59418601546 1022.3247404501 38334.874815657 33832701.148972
2995	1763164 1296 3121508 23922500 21 60 40 1.3498788587324 4.9716098684907 68.902201023075 137.26101715517
2994	1764460 1397 3121508 23922500 21 60 40 -0.097694778288714 2.0492382235313 4.9228850238128 9.0949692728092
2993	1765857 1333 2807754 23922500 20 60 41 2.9961562340673 7.9797279175348 316.67540014941 2477.8213385265
2992	1767190 990 2523352 23922500 19 60 42 516.75 516.75 21703.5 11215283.625
2991	1768180 1362 2523352 23922500 19 60 42 716.40718171707 1022.1561316776 36881.80921124 32764075.355701
3065	1769542 1240 3775644 23922500 23 60 38 1.3251742360691 4.7886933012377 65.29085281091 130.56775183251
3064	1770782 1326 3775644 23922500 23 60 38 -0.11081519684056 2.1183048893744 4.342177965269 8.1801174039476
3063	1772108 1264 3442370 23922500 22 60 39 3.5498721347115 7.9987463180046 302.46004278656 2369.0622443169
3062	1773372 944 3121508 23922500 21 60 40 516.75 516.75 20670 10681222.5
3061	1774316 1303 3121508 23922500 21 60 40 730.13023548352 1021.8799303682 35361.61017317 31587294.597366
3149	1775619 1174 4511738 23922500 25 60 36 1.2998191022041 5.2661786292565 61.759848786299 126.02394537455
3148	1776793 1258 4511738 23922500 25 60 36 -0.12383632793091 1.9602178139286 3.8636127574641 7.6174723499194
3147	1778051 1206 4139877 23922500 24 60 37 4.0273957115979 7.9996747244173 287.90881887077 2258.7632850269
3146	1779257 898 3775644 23922500 23 60 38 516.75 516.75 19636.5 10147161.375
3145	1780155 1239 3775644 23922500 23 60 38 744.4117857342 1021.3436682704 33835.424557672 30406784.507407
