version 2
run WithoutChSw-WSA-slotted-0-20180208-17:36:50-24834
attr configname WithoutChSw-WSA-slotted
attr datetime 20180208-17:36:50
attr experiment WithoutChSw-WSA-slotted
attr inifile omnetpp.ini
attr iterationvars $0=0.1s
attr iterationvarsf 0.1s-
attr measurement $0=0.1s
attr network Scenario2_SlowSpeed
attr processid 24834
attr repetition 0
attr replication #0
attr resultdir results
attr runnumber 0
attr seedset 0
param **.coreDebug false
param **.debug false
param *.**.nic.mac1609_4.bitrate 6Mbps
param *.**.nic.mac1609_4.txPower 20mW
param *.**.nic.mac1609_4.useServiceChannel false
param *.**.nic.phy80211p.analogueModels "xmldoc(\"config.xml\")"
param *.**.nic.phy80211p.antenna "xmldoc(\"antenna.xml\", \"/root/Antenna[@id='monopole']\")"
param *.**.nic.phy80211p.collectCollisionStatistics true
param *.**.nic.phy80211p.decider "xmldoc(\"config.xml\")"
param *.**.nic.phy80211p.sensitivity -89dBm
param *.**.nic.phy80211p.thermalNoise -110dBm
param *.**.nic.phy80211p.usePropagationDelay true
param *.**.nic.phy80211p.useThermalNoise true
param *.annotations.draw true
param *.connectionManager.drawMaxIntfDist false
param *.connectionManager.maxInterfDist 2600m
param *.connectionManager.sendDirect true
param *.manager.autoShutdown true
param *.manager.host "\"localhost\""
param *.manager.launchConfig "xmldoc(\"mycross.launchd.xml\")"
param *.manager.port 9999
param *.manager.updateInterval 1s
param *.node[*].appl.Slotted1Enabled true
param *.node[*].appl.Slotted_Ns 5
param *.node[*].appl.Slotted_R 500
param *.node[*].appl.Slotted_tau 0.005
param *.node[*].appl.beaconInterval 1s
param *.node[*].appl.dataOnSch false
param *.node[*].appl.headerLength "80 bit"
param *.node[*].appl.sendBeacons true
param *.node[*].appl.sendWSA true
param *.node[*].applType "\"myWaveAppLayer\""
param *.node[*].veinsmobility.x 0
param *.node[*].veinsmobility.y 0
param *.node[*].veinsmobility.z 1.895
param *.node[*].veinsmobilityType.debug true
param *.node[20].appl.Accident_start 30
param *.node[40].veinsmobility.accidentCount 1
param *.node[40].veinsmobility.accidentDuration 40s
param *.node[40].veinsmobility.accidentStart 30s
param *.obstacles.debug false
param *.playgroundSizeX 2500m
param *.playgroundSizeY 2500m
param *.playgroundSizeZ 50m
param *.rsu[*].appl.beaconInterval 0.1s
param *.rsu[*].appl.beaconUserPriority 7
param *.rsu[*].appl.dataOnSch false
param *.rsu[*].appl.dataUserPriority 5
param *.rsu[*].appl.headerLength "80 bit"
param *.rsu[*].appl.sendBeacons false
param *.rsu[*].applType "\"TraCIDemoRSU11p\""
param *.rsu[0].mobility.x 500
param *.rsu[0].mobility.y 500
param *.rsu[0].mobility.z 3

scalar Scenario2_SlowSpeed.node[0].appl 	generatedWSMs 	1
scalar Scenario2_SlowSpeed.node[0].appl 	receivedWSMs 	165
scalar Scenario2_SlowSpeed.node[0].appl 	generatedBSMs 	590
scalar Scenario2_SlowSpeed.node[0].appl 	receivedBSMs 	85619
scalar Scenario2_SlowSpeed.node[0].appl 	generatedWSAs 	0
scalar Scenario2_SlowSpeed.node[0].appl 	receivedWSAs 	0
scalar Scenario2_SlowSpeed.node[0].appl 	delayWSM 	0.000240349278
scalar Scenario2_SlowSpeed.node[0].appl 	Dist_Propa 	192.6145003466
scalar Scenario2_SlowSpeed.node[0].nic.phy80211p 	busyTime 	0.16485220339011
scalar Scenario2_SlowSpeed.node[0].nic.phy80211p 	ncollisions 	3137
scalar Scenario2_SlowSpeed.node[0].nic.mac1609_4 	ReceivedUnicastPackets 	0
scalar Scenario2_SlowSpeed.node[0].nic.mac1609_4 	ReceivedBroadcasts 	85784
scalar Scenario2_SlowSpeed.node[0].nic.mac1609_4 	SentPackets 	591
scalar Scenario2_SlowSpeed.node[0].nic.mac1609_4 	SNIRLostPackets 	7493
scalar Scenario2_SlowSpeed.node[0].nic.mac1609_4 	RXTXLostPackets 	2
scalar Scenario2_SlowSpeed.node[0].nic.mac1609_4 	TotalLostPackets 	7495
scalar Scenario2_SlowSpeed.node[0].nic.mac1609_4 	DroppedPacketsInMac 	0
scalar Scenario2_SlowSpeed.node[0].nic.mac1609_4 	TooLittleTime 	0
scalar Scenario2_SlowSpeed.node[0].nic.mac1609_4 	TimesIntoBackoff 	593
scalar Scenario2_SlowSpeed.node[0].nic.mac1609_4 	SlotsBackoff 	897
scalar Scenario2_SlowSpeed.node[0].nic.mac1609_4 	NumInternalContention 	0
scalar Scenario2_SlowSpeed.node[0].nic.mac1609_4 	totalBusyTime 	9.333083849095
scalar Scenario2_SlowSpeed.node[0].veinsmobility 	startTime 	1
scalar Scenario2_SlowSpeed.node[0].veinsmobility 	totalTime 	59
scalar Scenario2_SlowSpeed.node[0].veinsmobility 	stopTime 	60
scalar Scenario2_SlowSpeed.node[0].veinsmobility 	minSpeed 	4.0518554631622
scalar Scenario2_SlowSpeed.node[0].veinsmobility 	maxSpeed 	7.9879484311235
scalar Scenario2_SlowSpeed.node[0].veinsmobility 	totalDistance 	458.12904075632
scalar Scenario2_SlowSpeed.node[0].veinsmobility 	totalCO2Emission 	95.192546388852
scalar Scenario2_SlowSpeed.node[1].appl 	generatedWSMs 	1
scalar Scenario2_SlowSpeed.node[1].appl 	receivedWSMs 	159
scalar Scenario2_SlowSpeed.node[1].appl 	generatedBSMs 	590
scalar Scenario2_SlowSpeed.node[1].appl 	receivedBSMs 	83517
scalar Scenario2_SlowSpeed.node[1].appl 	generatedWSAs 	0
scalar Scenario2_SlowSpeed.node[1].appl 	receivedWSAs 	0
scalar Scenario2_SlowSpeed.node[1].appl 	delayWSM 	0.000240426294
scalar Scenario2_SlowSpeed.node[1].appl 	Dist_Propa 	169.14386154185
scalar Scenario2_SlowSpeed.node[1].nic.phy80211p 	busyTime 	0.16078969491552
scalar Scenario2_SlowSpeed.node[1].nic.phy80211p 	ncollisions 	3098
scalar Scenario2_SlowSpeed.node[1].nic.mac1609_4 	ReceivedUnicastPackets 	0
scalar Scenario2_SlowSpeed.node[1].nic.mac1609_4 	ReceivedBroadcasts 	83676
scalar Scenario2_SlowSpeed.node[1].nic.mac1609_4 	SentPackets 	591
scalar Scenario2_SlowSpeed.node[1].nic.mac1609_4 	SNIRLostPackets 	7300
scalar Scenario2_SlowSpeed.node[1].nic.mac1609_4 	RXTXLostPackets 	0
scalar Scenario2_SlowSpeed.node[1].nic.mac1609_4 	TotalLostPackets 	7300
scalar Scenario2_SlowSpeed.node[1].nic.mac1609_4 	DroppedPacketsInMac 	0
scalar Scenario2_SlowSpeed.node[1].nic.mac1609_4 	TooLittleTime 	0
scalar Scenario2_SlowSpeed.node[1].nic.mac1609_4 	TimesIntoBackoff 	591
scalar Scenario2_SlowSpeed.node[1].nic.mac1609_4 	SlotsBackoff 	850
scalar Scenario2_SlowSpeed.node[1].nic.mac1609_4 	NumInternalContention 	0
scalar Scenario2_SlowSpeed.node[1].nic.mac1609_4 	totalBusyTime 	9.118874854913
scalar Scenario2_SlowSpeed.node[1].veinsmobility 	startTime 	1
scalar Scenario2_SlowSpeed.node[1].veinsmobility 	totalTime 	59
scalar Scenario2_SlowSpeed.node[1].veinsmobility 	stopTime 	60
scalar Scenario2_SlowSpeed.node[1].veinsmobility 	minSpeed 	3.7822135175928
scalar Scenario2_SlowSpeed.node[1].veinsmobility 	maxSpeed 	7.9984821532085
scalar Scenario2_SlowSpeed.node[1].veinsmobility 	totalDistance 	459.98091866
scalar Scenario2_SlowSpeed.node[1].veinsmobility 	totalCO2Emission 	95.948474722952
scalar Scenario2_SlowSpeed.node[2].appl 	generatedWSMs 	1
scalar Scenario2_SlowSpeed.node[2].appl 	receivedWSMs 	123
scalar Scenario2_SlowSpeed.node[2].appl 	generatedBSMs 	590
scalar Scenario2_SlowSpeed.node[2].appl 	receivedBSMs 	67585
scalar Scenario2_SlowSpeed.node[2].appl 	generatedWSAs 	0
scalar Scenario2_SlowSpeed.node[2].appl 	receivedWSAs 	0
scalar Scenario2_SlowSpeed.node[2].appl 	delayWSM 	0.000240809447
scalar Scenario2_SlowSpeed.node[2].appl 	Dist_Propa 	54.708573610511
scalar Scenario2_SlowSpeed.node[2].nic.phy80211p 	busyTime 	0.12706698305101
scalar Scenario2_SlowSpeed.node[2].nic.phy80211p 	ncollisions 	2380
scalar Scenario2_SlowSpeed.node[2].nic.mac1609_4 	ReceivedUnicastPackets 	0
scalar Scenario2_SlowSpeed.node[2].nic.mac1609_4 	ReceivedBroadcasts 	67708
scalar Scenario2_SlowSpeed.node[2].nic.mac1609_4 	SentPackets 	591
scalar Scenario2_SlowSpeed.node[2].nic.mac1609_4 	SNIRLostPackets 	4191
scalar Scenario2_SlowSpeed.node[2].nic.mac1609_4 	RXTXLostPackets 	193
scalar Scenario2_SlowSpeed.node[2].nic.mac1609_4 	TotalLostPackets 	4384
scalar Scenario2_SlowSpeed.node[2].nic.mac1609_4 	DroppedPacketsInMac 	0
scalar Scenario2_SlowSpeed.node[2].nic.mac1609_4 	TooLittleTime 	0
scalar Scenario2_SlowSpeed.node[2].nic.mac1609_4 	TimesIntoBackoff 	899
scalar Scenario2_SlowSpeed.node[2].nic.mac1609_4 	SlotsBackoff 	1394
scalar Scenario2_SlowSpeed.node[2].nic.mac1609_4 	NumInternalContention 	0
scalar Scenario2_SlowSpeed.node[2].nic.mac1609_4 	totalBusyTime 	7.369255646606
scalar Scenario2_SlowSpeed.node[2].veinsmobility 	startTime 	1
scalar Scenario2_SlowSpeed.node[2].veinsmobility 	totalTime 	59
scalar Scenario2_SlowSpeed.node[2].veinsmobility 	stopTime 	60
scalar Scenario2_SlowSpeed.node[2].veinsmobility 	minSpeed 	3.897912896338
scalar Scenario2_SlowSpeed.node[2].veinsmobility 	maxSpeed 	7.9983026179066
scalar Scenario2_SlowSpeed.node[2].veinsmobility 	totalDistance 	456.31984322273
scalar Scenario2_SlowSpeed.node[2].veinsmobility 	totalCO2Emission 	97.560120482686
scalar Scenario2_SlowSpeed.node[114].appl 	generatedWSMs 	1
scalar Scenario2_SlowSpeed.node[114].appl 	receivedWSMs 	151
scalar Scenario2_SlowSpeed.node[114].appl 	generatedBSMs 	490
scalar Scenario2_SlowSpeed.node[114].appl 	receivedBSMs 	71690
scalar Scenario2_SlowSpeed.node[114].appl 	generatedWSAs 	0
scalar Scenario2_SlowSpeed.node[114].appl 	receivedWSAs 	0
scalar Scenario2_SlowSpeed.node[114].appl 	delayWSM 	0.000239872889
scalar Scenario2_SlowSpeed.node[114].appl 	Dist_Propa 	524.22809643052
scalar Scenario2_SlowSpeed.node[114].nic.phy80211p 	busyTime 	0.16452865306146
scalar Scenario2_SlowSpeed.node[114].nic.phy80211p 	ncollisions 	2546
scalar Scenario2_SlowSpeed.node[114].nic.mac1609_4 	ReceivedUnicastPackets 	0
scalar Scenario2_SlowSpeed.node[114].nic.mac1609_4 	ReceivedBroadcasts 	71841
scalar Scenario2_SlowSpeed.node[114].nic.mac1609_4 	SentPackets 	491
scalar Scenario2_SlowSpeed.node[114].nic.mac1609_4 	SNIRLostPackets 	5441
scalar Scenario2_SlowSpeed.node[114].nic.mac1609_4 	RXTXLostPackets 	0
scalar Scenario2_SlowSpeed.node[114].nic.mac1609_4 	TotalLostPackets 	5441
scalar Scenario2_SlowSpeed.node[114].nic.mac1609_4 	DroppedPacketsInMac 	0
scalar Scenario2_SlowSpeed.node[114].nic.mac1609_4 	TooLittleTime 	0
scalar Scenario2_SlowSpeed.node[114].nic.mac1609_4 	TimesIntoBackoff 	493
scalar Scenario2_SlowSpeed.node[114].nic.mac1609_4 	SlotsBackoff 	732
scalar Scenario2_SlowSpeed.node[114].nic.mac1609_4 	NumInternalContention 	0
scalar Scenario2_SlowSpeed.node[114].nic.mac1609_4 	totalBusyTime 	7.810381477176
scalar Scenario2_SlowSpeed.node[114].veinsmobility 	startTime 	11
scalar Scenario2_SlowSpeed.node[114].veinsmobility 	totalTime 	49
scalar Scenario2_SlowSpeed.node[114].veinsmobility 	stopTime 	60
scalar Scenario2_SlowSpeed.node[114].veinsmobility 	minSpeed 	2.3009286735916
scalar Scenario2_SlowSpeed.node[114].veinsmobility 	maxSpeed 	7.9973298779479
scalar Scenario2_SlowSpeed.node[114].veinsmobility 	totalDistance 	321.77978262127
scalar Scenario2_SlowSpeed.node[114].veinsmobility 	totalCO2Emission 	80.37773906376
scalar Scenario2_SlowSpeed.node[47].appl 	generatedWSMs 	1
scalar Scenario2_SlowSpeed.node[47].appl 	receivedWSMs 	125
scalar Scenario2_SlowSpeed.node[47].appl 	generatedBSMs 	580
scalar Scenario2_SlowSpeed.node[47].appl 	receivedBSMs 	66668
scalar Scenario2_SlowSpeed.node[47].appl 	generatedWSAs 	0
scalar Scenario2_SlowSpeed.node[47].appl 	receivedWSAs 	0
scalar Scenario2_SlowSpeed.node[47].appl 	delayWSM 	2.011050225399
scalar Scenario2_SlowSpeed.node[47].appl 	Dist_Propa 	494.46937640178
scalar Scenario2_SlowSpeed.node[47].nic.phy80211p 	busyTime 	0.13364882758639
scalar Scenario2_SlowSpeed.node[47].nic.phy80211p 	ncollisions 	4021
scalar Scenario2_SlowSpeed.node[47].nic.mac1609_4 	ReceivedUnicastPackets 	0
scalar Scenario2_SlowSpeed.node[47].nic.mac1609_4 	ReceivedBroadcasts 	66793
scalar Scenario2_SlowSpeed.node[47].nic.mac1609_4 	SentPackets 	581
scalar Scenario2_SlowSpeed.node[47].nic.mac1609_4 	SNIRLostPackets 	7528
scalar Scenario2_SlowSpeed.node[47].nic.mac1609_4 	RXTXLostPackets 	1
scalar Scenario2_SlowSpeed.node[47].nic.mac1609_4 	TotalLostPackets 	7529
scalar Scenario2_SlowSpeed.node[47].nic.mac1609_4 	DroppedPacketsInMac 	0
scalar Scenario2_SlowSpeed.node[47].nic.mac1609_4 	TooLittleTime 	0
scalar Scenario2_SlowSpeed.node[47].nic.mac1609_4 	TimesIntoBackoff 	582
scalar Scenario2_SlowSpeed.node[47].nic.mac1609_4 	SlotsBackoff 	851
scalar Scenario2_SlowSpeed.node[47].nic.mac1609_4 	NumInternalContention 	0
scalar Scenario2_SlowSpeed.node[47].nic.mac1609_4 	totalBusyTime 	7.446013235716
scalar Scenario2_SlowSpeed.node[47].veinsmobility 	startTime 	2
scalar Scenario2_SlowSpeed.node[47].veinsmobility 	totalTime 	58
scalar Scenario2_SlowSpeed.node[47].veinsmobility 	stopTime 	60
scalar Scenario2_SlowSpeed.node[47].veinsmobility 	minSpeed 	0.43421228121151
scalar Scenario2_SlowSpeed.node[47].veinsmobility 	maxSpeed 	7.9955997145083
scalar Scenario2_SlowSpeed.node[47].veinsmobility 	totalDistance 	269.97887236943
scalar Scenario2_SlowSpeed.node[47].veinsmobility 	totalCO2Emission 	88.936329389505
scalar Scenario2_SlowSpeed.node[116].appl 	generatedWSMs 	1
scalar Scenario2_SlowSpeed.node[116].appl 	receivedWSMs 	167
scalar Scenario2_SlowSpeed.node[116].appl 	generatedBSMs 	480
scalar Scenario2_SlowSpeed.node[116].appl 	receivedBSMs 	83473
scalar Scenario2_SlowSpeed.node[116].appl 	generatedWSAs 	0
scalar Scenario2_SlowSpeed.node[116].appl 	receivedWSAs 	0
scalar Scenario2_SlowSpeed.node[116].appl 	delayWSM 	0.000240186162
scalar Scenario2_SlowSpeed.node[116].appl 	Dist_Propa 	5.7098678032681
scalar Scenario2_SlowSpeed.node[116].nic.phy80211p 	busyTime 	0.20315766666702
scalar Scenario2_SlowSpeed.node[116].nic.phy80211p 	ncollisions 	4521
scalar Scenario2_SlowSpeed.node[116].nic.mac1609_4 	ReceivedUnicastPackets 	0
scalar Scenario2_SlowSpeed.node[116].nic.mac1609_4 	ReceivedBroadcasts 	83640
scalar Scenario2_SlowSpeed.node[116].nic.mac1609_4 	SentPackets 	481
scalar Scenario2_SlowSpeed.node[116].nic.mac1609_4 	SNIRLostPackets 	9874
scalar Scenario2_SlowSpeed.node[116].nic.mac1609_4 	RXTXLostPackets 	1
scalar Scenario2_SlowSpeed.node[116].nic.mac1609_4 	TotalLostPackets 	9875
scalar Scenario2_SlowSpeed.node[116].nic.mac1609_4 	DroppedPacketsInMac 	0
scalar Scenario2_SlowSpeed.node[116].nic.mac1609_4 	TooLittleTime 	0
scalar Scenario2_SlowSpeed.node[116].nic.mac1609_4 	TimesIntoBackoff 	481
scalar Scenario2_SlowSpeed.node[116].nic.mac1609_4 	SlotsBackoff 	688
scalar Scenario2_SlowSpeed.node[116].nic.mac1609_4 	NumInternalContention 	0
scalar Scenario2_SlowSpeed.node[116].nic.mac1609_4 	totalBusyTime 	9.243620407991
scalar Scenario2_SlowSpeed.node[116].veinsmobility 	startTime 	12
scalar Scenario2_SlowSpeed.node[116].veinsmobility 	totalTime 	48
scalar Scenario2_SlowSpeed.node[116].veinsmobility 	stopTime 	60
scalar Scenario2_SlowSpeed.node[116].veinsmobility 	minSpeed 	0
scalar Scenario2_SlowSpeed.node[116].veinsmobility 	maxSpeed 	7.9463586301845
scalar Scenario2_SlowSpeed.node[116].veinsmobility 	totalDistance 	102.68309158462
scalar Scenario2_SlowSpeed.node[116].veinsmobility 	totalCO2Emission 	71.995653749705
scalar Scenario2_SlowSpeed.node[117].appl 	generatedWSMs 	1
scalar Scenario2_SlowSpeed.node[117].appl 	receivedWSMs 	137
scalar Scenario2_SlowSpeed.node[117].appl 	generatedBSMs 	480
scalar Scenario2_SlowSpeed.node[117].appl 	receivedBSMs 	64444
scalar Scenario2_SlowSpeed.node[117].appl 	generatedWSAs 	0
scalar Scenario2_SlowSpeed.node[117].appl 	receivedWSAs 	0
scalar Scenario2_SlowSpeed.node[117].appl 	delayWSM 	0.000240691379
scalar Scenario2_SlowSpeed.node[117].appl 	Dist_Propa 	92.254631296929
scalar Scenario2_SlowSpeed.node[117].nic.phy80211p 	busyTime 	0.15065166666685
scalar Scenario2_SlowSpeed.node[117].nic.phy80211p 	ncollisions 	2414
scalar Scenario2_SlowSpeed.node[117].nic.mac1609_4 	ReceivedUnicastPackets 	0
scalar Scenario2_SlowSpeed.node[117].nic.mac1609_4 	ReceivedBroadcasts 	64581
scalar Scenario2_SlowSpeed.node[117].nic.mac1609_4 	SentPackets 	481
scalar Scenario2_SlowSpeed.node[117].nic.mac1609_4 	SNIRLostPackets 	4745
scalar Scenario2_SlowSpeed.node[117].nic.mac1609_4 	RXTXLostPackets 	2
scalar Scenario2_SlowSpeed.node[117].nic.mac1609_4 	TotalLostPackets 	4747
scalar Scenario2_SlowSpeed.node[117].nic.mac1609_4 	DroppedPacketsInMac 	0
scalar Scenario2_SlowSpeed.node[117].nic.mac1609_4 	TooLittleTime 	0
scalar Scenario2_SlowSpeed.node[117].nic.mac1609_4 	TimesIntoBackoff 	482
scalar Scenario2_SlowSpeed.node[117].nic.mac1609_4 	SlotsBackoff 	681
scalar Scenario2_SlowSpeed.node[117].nic.mac1609_4 	NumInternalContention 	0
scalar Scenario2_SlowSpeed.node[117].nic.mac1609_4 	totalBusyTime 	7.037953934652
scalar Scenario2_SlowSpeed.node[117].veinsmobility 	startTime 	12
scalar Scenario2_SlowSpeed.node[117].veinsmobility 	totalTime 	48
scalar Scenario2_SlowSpeed.node[117].veinsmobility 	stopTime 	60
scalar Scenario2_SlowSpeed.node[117].veinsmobility 	minSpeed 	2.2556257702139
scalar Scenario2_SlowSpeed.node[117].veinsmobility 	maxSpeed 	7.9959876975743
scalar Scenario2_SlowSpeed.node[117].veinsmobility 	totalDistance 	368.66565924979
scalar Scenario2_SlowSpeed.node[117].veinsmobility 	totalCO2Emission 	80.178280575168
scalar Scenario2_SlowSpeed.node[118].appl 	generatedWSMs 	1
scalar Scenario2_SlowSpeed.node[118].appl 	receivedWSMs 	165
scalar Scenario2_SlowSpeed.node[118].appl 	generatedBSMs 	480
scalar Scenario2_SlowSpeed.node[118].appl 	receivedBSMs 	83891
scalar Scenario2_SlowSpeed.node[118].appl 	generatedWSAs 	0
scalar Scenario2_SlowSpeed.node[118].appl 	receivedWSAs 	0
scalar Scenario2_SlowSpeed.node[118].appl 	delayWSM 	0.000240147225
scalar Scenario2_SlowSpeed.node[118].appl 	Dist_Propa 	8.1384348081569
scalar Scenario2_SlowSpeed.node[118].nic.phy80211p 	busyTime 	0.20439750000035
scalar Scenario2_SlowSpeed.node[118].nic.phy80211p 	ncollisions 	4558
scalar Scenario2_SlowSpeed.node[118].nic.mac1609_4 	ReceivedUnicastPackets 	0
scalar Scenario2_SlowSpeed.node[118].nic.mac1609_4 	ReceivedBroadcasts 	84056
scalar Scenario2_SlowSpeed.node[118].nic.mac1609_4 	SentPackets 	481
scalar Scenario2_SlowSpeed.node[118].nic.mac1609_4 	SNIRLostPackets 	10029
scalar Scenario2_SlowSpeed.node[118].nic.mac1609_4 	RXTXLostPackets 	0
scalar Scenario2_SlowSpeed.node[118].nic.mac1609_4 	TotalLostPackets 	10029
scalar Scenario2_SlowSpeed.node[118].nic.mac1609_4 	DroppedPacketsInMac 	0
scalar Scenario2_SlowSpeed.node[118].nic.mac1609_4 	TooLittleTime 	0
scalar Scenario2_SlowSpeed.node[118].nic.mac1609_4 	TimesIntoBackoff 	481
scalar Scenario2_SlowSpeed.node[118].nic.mac1609_4 	SlotsBackoff 	716
scalar Scenario2_SlowSpeed.node[118].nic.mac1609_4 	NumInternalContention 	0
scalar Scenario2_SlowSpeed.node[118].nic.mac1609_4 	totalBusyTime 	9.292586597864
scalar Scenario2_SlowSpeed.node[118].veinsmobility 	startTime 	12
scalar Scenario2_SlowSpeed.node[118].veinsmobility 	totalTime 	48
scalar Scenario2_SlowSpeed.node[118].veinsmobility 	stopTime 	60
scalar Scenario2_SlowSpeed.node[118].veinsmobility 	minSpeed 	0
scalar Scenario2_SlowSpeed.node[118].veinsmobility 	maxSpeed 	3.1736507565273
scalar Scenario2_SlowSpeed.node[118].veinsmobility 	totalDistance 	43.420892795249
scalar Scenario2_SlowSpeed.node[118].veinsmobility 	totalCO2Emission 	51.512866186797
scalar Scenario2_SlowSpeed.node[119].appl 	generatedWSMs 	1
scalar Scenario2_SlowSpeed.node[119].appl 	receivedWSMs 	164
scalar Scenario2_SlowSpeed.node[119].appl 	generatedBSMs 	480
scalar Scenario2_SlowSpeed.node[119].appl 	receivedBSMs 	83790
scalar Scenario2_SlowSpeed.node[119].appl 	generatedWSAs 	0
scalar Scenario2_SlowSpeed.node[119].appl 	receivedWSAs 	0
scalar Scenario2_SlowSpeed.node[119].appl 	delayWSM 	0.000240095696
scalar Scenario2_SlowSpeed.node[119].appl 	Dist_Propa 	164.58208661551
scalar Scenario2_SlowSpeed.node[119].nic.phy80211p 	busyTime 	0.20385583333368
scalar Scenario2_SlowSpeed.node[119].nic.phy80211p 	ncollisions 	4434
scalar Scenario2_SlowSpeed.node[119].nic.mac1609_4 	ReceivedUnicastPackets 	0
scalar Scenario2_SlowSpeed.node[119].nic.mac1609_4 	ReceivedBroadcasts 	83954
scalar Scenario2_SlowSpeed.node[119].nic.mac1609_4 	SentPackets 	481
scalar Scenario2_SlowSpeed.node[119].nic.mac1609_4 	SNIRLostPackets 	9881
scalar Scenario2_SlowSpeed.node[119].nic.mac1609_4 	RXTXLostPackets 	0
scalar Scenario2_SlowSpeed.node[119].nic.mac1609_4 	TotalLostPackets 	9881
scalar Scenario2_SlowSpeed.node[119].nic.mac1609_4 	DroppedPacketsInMac 	0
scalar Scenario2_SlowSpeed.node[119].nic.mac1609_4 	TooLittleTime 	0
scalar Scenario2_SlowSpeed.node[119].nic.mac1609_4 	TimesIntoBackoff 	482
scalar Scenario2_SlowSpeed.node[119].nic.mac1609_4 	SlotsBackoff 	726
scalar Scenario2_SlowSpeed.node[119].nic.mac1609_4 	NumInternalContention 	0
scalar Scenario2_SlowSpeed.node[119].nic.mac1609_4 	totalBusyTime 	9.267188194884
scalar Scenario2_SlowSpeed.node[119].veinsmobility 	startTime 	12
scalar Scenario2_SlowSpeed.node[119].veinsmobility 	totalTime 	48
scalar Scenario2_SlowSpeed.node[119].veinsmobility 	stopTime 	60
scalar Scenario2_SlowSpeed.node[119].veinsmobility 	minSpeed 	0
scalar Scenario2_SlowSpeed.node[119].veinsmobility 	maxSpeed 	7.5214978709393
scalar Scenario2_SlowSpeed.node[119].veinsmobility 	totalDistance 	158.65069089756
scalar Scenario2_SlowSpeed.node[119].veinsmobility 	totalCO2Emission 	72.648978275518
scalar Scenario2_SlowSpeed.node[120].appl 	generatedWSMs 	1
scalar Scenario2_SlowSpeed.node[120].appl 	receivedWSMs 	156
scalar Scenario2_SlowSpeed.node[120].appl 	generatedBSMs 	480
scalar Scenario2_SlowSpeed.node[120].appl 	receivedBSMs 	72258
scalar Scenario2_SlowSpeed.node[120].appl 	generatedWSAs 	0
scalar Scenario2_SlowSpeed.node[120].appl 	receivedWSAs 	0
scalar Scenario2_SlowSpeed.node[120].appl 	delayWSM 	0.00024051686
scalar Scenario2_SlowSpeed.node[120].appl 	Dist_Propa 	130.04691040335
scalar Scenario2_SlowSpeed.node[120].nic.phy80211p 	busyTime 	0.17034250000025
scalar Scenario2_SlowSpeed.node[120].nic.phy80211p 	ncollisions 	2672
scalar Scenario2_SlowSpeed.node[120].nic.mac1609_4 	ReceivedUnicastPackets 	0
scalar Scenario2_SlowSpeed.node[120].nic.mac1609_4 	ReceivedBroadcasts 	72414
scalar Scenario2_SlowSpeed.node[120].nic.mac1609_4 	SentPackets 	481
scalar Scenario2_SlowSpeed.node[120].nic.mac1609_4 	SNIRLostPackets 	5955
scalar Scenario2_SlowSpeed.node[120].nic.mac1609_4 	RXTXLostPackets 	110
scalar Scenario2_SlowSpeed.node[120].nic.mac1609_4 	TotalLostPackets 	6065
scalar Scenario2_SlowSpeed.node[120].nic.mac1609_4 	DroppedPacketsInMac 	0
scalar Scenario2_SlowSpeed.node[120].nic.mac1609_4 	TooLittleTime 	0
scalar Scenario2_SlowSpeed.node[120].nic.mac1609_4 	TimesIntoBackoff 	544
scalar Scenario2_SlowSpeed.node[120].nic.mac1609_4 	SlotsBackoff 	837
scalar Scenario2_SlowSpeed.node[120].nic.mac1609_4 	NumInternalContention 	0
scalar Scenario2_SlowSpeed.node[120].nic.mac1609_4 	totalBusyTime 	7.881724043241
scalar Scenario2_SlowSpeed.node[120].veinsmobility 	startTime 	12
scalar Scenario2_SlowSpeed.node[120].veinsmobility 	totalTime 	48
scalar Scenario2_SlowSpeed.node[120].veinsmobility 	stopTime 	60
scalar Scenario2_SlowSpeed.node[120].veinsmobility 	minSpeed 	0
scalar Scenario2_SlowSpeed.node[120].veinsmobility 	maxSpeed 	7.9987261597696
scalar Scenario2_SlowSpeed.node[120].veinsmobility 	totalDistance 	306.00941850167
scalar Scenario2_SlowSpeed.node[120].veinsmobility 	totalCO2Emission 	77.79440106094
scalar Scenario2_SlowSpeed.node[121].appl 	generatedWSMs 	1
scalar Scenario2_SlowSpeed.node[121].appl 	receivedWSMs 	166
scalar Scenario2_SlowSpeed.node[121].appl 	generatedBSMs 	480
scalar Scenario2_SlowSpeed.node[121].appl 	receivedBSMs 	83510
scalar Scenario2_SlowSpeed.node[121].appl 	generatedWSAs 	0
scalar Scenario2_SlowSpeed.node[121].appl 	receivedWSAs 	0
scalar Scenario2_SlowSpeed.node[121].appl 	delayWSM 	0.000240209742
scalar Scenario2_SlowSpeed.node[121].appl 	Dist_Propa 	0.91853996880292
scalar Scenario2_SlowSpeed.node[121].nic.phy80211p 	busyTime 	0.20291766666701
scalar Scenario2_SlowSpeed.node[121].nic.phy80211p 	ncollisions 	4412
scalar Scenario2_SlowSpeed.node[121].nic.mac1609_4 	ReceivedUnicastPackets 	0
scalar Scenario2_SlowSpeed.node[121].nic.mac1609_4 	ReceivedBroadcasts 	83676
scalar Scenario2_SlowSpeed.node[121].nic.mac1609_4 	SentPackets 	481
scalar Scenario2_SlowSpeed.node[121].nic.mac1609_4 	SNIRLostPackets 	9726
scalar Scenario2_SlowSpeed.node[121].nic.mac1609_4 	RXTXLostPackets 	23
scalar Scenario2_SlowSpeed.node[121].nic.mac1609_4 	TotalLostPackets 	9749
scalar Scenario2_SlowSpeed.node[121].nic.mac1609_4 	DroppedPacketsInMac 	0
scalar Scenario2_SlowSpeed.node[121].nic.mac1609_4 	TooLittleTime 	0
scalar Scenario2_SlowSpeed.node[121].nic.mac1609_4 	TimesIntoBackoff 	617
scalar Scenario2_SlowSpeed.node[121].nic.mac1609_4 	SlotsBackoff 	953
scalar Scenario2_SlowSpeed.node[121].nic.mac1609_4 	NumInternalContention 	0
scalar Scenario2_SlowSpeed.node[121].nic.mac1609_4 	totalBusyTime 	9.23535197075
scalar Scenario2_SlowSpeed.node[121].veinsmobility 	startTime 	12
scalar Scenario2_SlowSpeed.node[121].veinsmobility 	totalTime 	48
scalar Scenario2_SlowSpeed.node[121].veinsmobility 	stopTime 	60
scalar Scenario2_SlowSpeed.node[121].veinsmobility 	minSpeed 	0
scalar Scenario2_SlowSpeed.node[121].veinsmobility 	maxSpeed 	5.9950294753779
scalar Scenario2_SlowSpeed.node[121].veinsmobility 	totalDistance 	55.58751005008
scalar Scenario2_SlowSpeed.node[121].veinsmobility 	totalCO2Emission 	56.867888377594
scalar Scenario2_SlowSpeed.node[122].appl 	generatedWSMs 	1
scalar Scenario2_SlowSpeed.node[122].appl 	receivedWSMs 	149
scalar Scenario2_SlowSpeed.node[122].appl 	generatedBSMs 	480
scalar Scenario2_SlowSpeed.node[122].appl 	receivedBSMs 	68842
scalar Scenario2_SlowSpeed.node[122].appl 	generatedWSAs 	0
scalar Scenario2_SlowSpeed.node[122].appl 	receivedWSAs 	0
scalar Scenario2_SlowSpeed.node[122].appl 	delayWSM 	0.00023993153
scalar Scenario2_SlowSpeed.node[122].appl 	Dist_Propa 	486.35621942341
scalar Scenario2_SlowSpeed.node[122].nic.phy80211p 	busyTime 	0.16001416666688
scalar Scenario2_SlowSpeed.node[122].nic.phy80211p 	ncollisions 	2108
scalar Scenario2_SlowSpeed.node[122].nic.mac1609_4 	ReceivedUnicastPackets 	0
scalar Scenario2_SlowSpeed.node[122].nic.mac1609_4 	ReceivedBroadcasts 	68991
scalar Scenario2_SlowSpeed.node[122].nic.mac1609_4 	SentPackets 	481
scalar Scenario2_SlowSpeed.node[122].nic.mac1609_4 	SNIRLostPackets 	4634
scalar Scenario2_SlowSpeed.node[122].nic.mac1609_4 	RXTXLostPackets 	0
scalar Scenario2_SlowSpeed.node[122].nic.mac1609_4 	TotalLostPackets 	4634
scalar Scenario2_SlowSpeed.node[122].nic.mac1609_4 	DroppedPacketsInMac 	0
scalar Scenario2_SlowSpeed.node[122].nic.mac1609_4 	TooLittleTime 	0
scalar Scenario2_SlowSpeed.node[122].nic.mac1609_4 	TimesIntoBackoff 	483
scalar Scenario2_SlowSpeed.node[122].nic.mac1609_4 	SlotsBackoff 	699
scalar Scenario2_SlowSpeed.node[122].nic.mac1609_4 	NumInternalContention 	0
scalar Scenario2_SlowSpeed.node[122].nic.mac1609_4 	totalBusyTime 	7.466229545905
scalar Scenario2_SlowSpeed.node[122].veinsmobility 	startTime 	12
scalar Scenario2_SlowSpeed.node[122].veinsmobility 	totalTime 	48
scalar Scenario2_SlowSpeed.node[122].veinsmobility 	stopTime 	60
scalar Scenario2_SlowSpeed.node[122].veinsmobility 	minSpeed 	2.3163714007131
scalar Scenario2_SlowSpeed.node[122].veinsmobility 	maxSpeed 	7.9966131793428
scalar Scenario2_SlowSpeed.node[122].veinsmobility 	totalDistance 	325.23235649607
scalar Scenario2_SlowSpeed.node[122].veinsmobility 	totalCO2Emission 	79.1678921284
scalar Scenario2_SlowSpeed.node[123].appl 	generatedWSMs 	1
scalar Scenario2_SlowSpeed.node[123].appl 	receivedWSMs 	163
scalar Scenario2_SlowSpeed.node[123].appl 	generatedBSMs 	480
scalar Scenario2_SlowSpeed.node[123].appl 	receivedBSMs 	76046
scalar Scenario2_SlowSpeed.node[123].appl 	generatedWSAs 	0
scalar Scenario2_SlowSpeed.node[123].appl 	receivedWSAs 	0
scalar Scenario2_SlowSpeed.node[123].appl 	delayWSM 	0.000240410946
scalar Scenario2_SlowSpeed.node[123].appl 	Dist_Propa 	136.11963409802
scalar Scenario2_SlowSpeed.node[123].nic.phy80211p 	busyTime 	0.18050383333361
scalar Scenario2_SlowSpeed.node[123].nic.phy80211p 	ncollisions 	2952
scalar Scenario2_SlowSpeed.node[123].nic.mac1609_4 	ReceivedUnicastPackets 	0
scalar Scenario2_SlowSpeed.node[123].nic.mac1609_4 	ReceivedBroadcasts 	76209
scalar Scenario2_SlowSpeed.node[123].nic.mac1609_4 	SentPackets 	481
scalar Scenario2_SlowSpeed.node[123].nic.mac1609_4 	SNIRLostPackets 	6858
scalar Scenario2_SlowSpeed.node[123].nic.mac1609_4 	RXTXLostPackets 	0
scalar Scenario2_SlowSpeed.node[123].nic.mac1609_4 	TotalLostPackets 	6858
scalar Scenario2_SlowSpeed.node[123].nic.mac1609_4 	DroppedPacketsInMac 	0
scalar Scenario2_SlowSpeed.node[123].nic.mac1609_4 	TooLittleTime 	0
scalar Scenario2_SlowSpeed.node[123].nic.mac1609_4 	TimesIntoBackoff 	481
scalar Scenario2_SlowSpeed.node[123].nic.mac1609_4 	SlotsBackoff 	725
scalar Scenario2_SlowSpeed.node[123].nic.mac1609_4 	NumInternalContention 	0
scalar Scenario2_SlowSpeed.node[123].nic.mac1609_4 	totalBusyTime 	8.315703509759
scalar Scenario2_SlowSpeed.node[123].veinsmobility 	startTime 	12
scalar Scenario2_SlowSpeed.node[123].veinsmobility 	totalTime 	48
scalar Scenario2_SlowSpeed.node[123].veinsmobility 	stopTime 	60
scalar Scenario2_SlowSpeed.node[123].veinsmobility 	minSpeed 	0.44657248678937
scalar Scenario2_SlowSpeed.node[123].veinsmobility 	maxSpeed 	7.9940120015526
scalar Scenario2_SlowSpeed.node[123].veinsmobility 	totalDistance 	281.60598899159
scalar Scenario2_SlowSpeed.node[123].veinsmobility 	totalCO2Emission 	75.439288735697
scalar Scenario2_SlowSpeed.node[3].appl 	generatedWSMs 	1
scalar Scenario2_SlowSpeed.node[3].appl 	receivedWSMs 	163
scalar Scenario2_SlowSpeed.node[3].appl 	generatedBSMs 	590
scalar Scenario2_SlowSpeed.node[3].appl 	receivedBSMs 	87055
scalar Scenario2_SlowSpeed.node[3].appl 	generatedWSAs 	0
scalar Scenario2_SlowSpeed.node[3].appl 	receivedWSAs 	0
scalar Scenario2_SlowSpeed.node[3].appl 	delayWSM 	0.000239574188
scalar Scenario2_SlowSpeed.node[3].appl 	Dist_Propa 	425.20630996518
scalar Scenario2_SlowSpeed.node[3].nic.phy80211p 	busyTime 	0.16970061016979
scalar Scenario2_SlowSpeed.node[3].nic.phy80211p 	ncollisions 	3796
scalar Scenario2_SlowSpeed.node[3].nic.mac1609_4 	ReceivedUnicastPackets 	0
scalar Scenario2_SlowSpeed.node[3].nic.mac1609_4 	ReceivedBroadcasts 	87218
scalar Scenario2_SlowSpeed.node[3].nic.mac1609_4 	SentPackets 	591
scalar Scenario2_SlowSpeed.node[3].nic.mac1609_4 	SNIRLostPackets 	8795
scalar Scenario2_SlowSpeed.node[3].nic.mac1609_4 	RXTXLostPackets 	8
scalar Scenario2_SlowSpeed.node[3].nic.mac1609_4 	TotalLostPackets 	8803
scalar Scenario2_SlowSpeed.node[3].nic.mac1609_4 	DroppedPacketsInMac 	0
scalar Scenario2_SlowSpeed.node[3].nic.mac1609_4 	TooLittleTime 	0
scalar Scenario2_SlowSpeed.node[3].nic.mac1609_4 	TimesIntoBackoff 	604
scalar Scenario2_SlowSpeed.node[3].nic.mac1609_4 	SlotsBackoff 	920
scalar Scenario2_SlowSpeed.node[3].nic.mac1609_4 	NumInternalContention 	0
scalar Scenario2_SlowSpeed.node[3].nic.mac1609_4 	totalBusyTime 	9.551915679732
scalar Scenario2_SlowSpeed.node[3].veinsmobility 	startTime 	1
scalar Scenario2_SlowSpeed.node[3].veinsmobility 	totalTime 	59
scalar Scenario2_SlowSpeed.node[3].veinsmobility 	stopTime 	60
scalar Scenario2_SlowSpeed.node[3].veinsmobility 	minSpeed 	0.57513828796073
scalar Scenario2_SlowSpeed.node[3].veinsmobility 	maxSpeed 	7.9971425564191
scalar Scenario2_SlowSpeed.node[3].veinsmobility 	totalDistance 	420.68628332456
scalar Scenario2_SlowSpeed.node[3].veinsmobility 	totalCO2Emission 	90.619815672181
scalar Scenario2_SlowSpeed.node[125].appl 	generatedWSMs 	1
scalar Scenario2_SlowSpeed.node[125].appl 	receivedWSMs 	164
scalar Scenario2_SlowSpeed.node[125].appl 	generatedBSMs 	470
scalar Scenario2_SlowSpeed.node[125].appl 	receivedBSMs 	79316
scalar Scenario2_SlowSpeed.node[125].appl 	generatedWSAs 	0
scalar Scenario2_SlowSpeed.node[125].appl 	receivedWSAs 	0
scalar Scenario2_SlowSpeed.node[125].appl 	delayWSM 	0.000240276098
scalar Scenario2_SlowSpeed.node[125].appl 	Dist_Propa 	58.136094556191
scalar Scenario2_SlowSpeed.node[125].nic.phy80211p 	busyTime 	0.19290093617052
scalar Scenario2_SlowSpeed.node[125].nic.phy80211p 	ncollisions 	3334
scalar Scenario2_SlowSpeed.node[125].nic.mac1609_4 	ReceivedUnicastPackets 	0
scalar Scenario2_SlowSpeed.node[125].nic.mac1609_4 	ReceivedBroadcasts 	79480
scalar Scenario2_SlowSpeed.node[125].nic.mac1609_4 	SentPackets 	471
scalar Scenario2_SlowSpeed.node[125].nic.mac1609_4 	SNIRLostPackets 	7449
scalar Scenario2_SlowSpeed.node[125].nic.mac1609_4 	RXTXLostPackets 	82
scalar Scenario2_SlowSpeed.node[125].nic.mac1609_4 	TotalLostPackets 	7531
scalar Scenario2_SlowSpeed.node[125].nic.mac1609_4 	DroppedPacketsInMac 	0
scalar Scenario2_SlowSpeed.node[125].nic.mac1609_4 	TooLittleTime 	0
scalar Scenario2_SlowSpeed.node[125].nic.mac1609_4 	TimesIntoBackoff 	941
scalar Scenario2_SlowSpeed.node[125].nic.mac1609_4 	SlotsBackoff 	1349
scalar Scenario2_SlowSpeed.node[125].nic.mac1609_4 	NumInternalContention 	0
scalar Scenario2_SlowSpeed.node[125].nic.mac1609_4 	totalBusyTime 	8.685485622418
scalar Scenario2_SlowSpeed.node[125].veinsmobility 	startTime 	13
scalar Scenario2_SlowSpeed.node[125].veinsmobility 	totalTime 	47
scalar Scenario2_SlowSpeed.node[125].veinsmobility 	stopTime 	60
scalar Scenario2_SlowSpeed.node[125].veinsmobility 	minSpeed 	0
scalar Scenario2_SlowSpeed.node[125].veinsmobility 	maxSpeed 	7.9845323955901
scalar Scenario2_SlowSpeed.node[125].veinsmobility 	totalDistance 	233.59019313978
scalar Scenario2_SlowSpeed.node[125].veinsmobility 	totalCO2Emission 	71.512618776055
scalar Scenario2_SlowSpeed.node[126].appl 	generatedWSMs 	1
scalar Scenario2_SlowSpeed.node[126].appl 	receivedWSMs 	166
scalar Scenario2_SlowSpeed.node[126].appl 	generatedBSMs 	470
scalar Scenario2_SlowSpeed.node[126].appl 	receivedBSMs 	82551
scalar Scenario2_SlowSpeed.node[126].appl 	generatedWSAs 	0
scalar Scenario2_SlowSpeed.node[126].appl 	receivedWSAs 	0
scalar Scenario2_SlowSpeed.node[126].appl 	delayWSM 	0.000240185885
scalar Scenario2_SlowSpeed.node[126].appl 	Dist_Propa 	3.3172904895127
scalar Scenario2_SlowSpeed.node[126].nic.phy80211p 	busyTime 	0.2053807659578
scalar Scenario2_SlowSpeed.node[126].nic.phy80211p 	ncollisions 	4475
scalar Scenario2_SlowSpeed.node[126].nic.mac1609_4 	ReceivedUnicastPackets 	0
scalar Scenario2_SlowSpeed.node[126].nic.mac1609_4 	ReceivedBroadcasts 	82717
scalar Scenario2_SlowSpeed.node[126].nic.mac1609_4 	SentPackets 	471
scalar Scenario2_SlowSpeed.node[126].nic.mac1609_4 	SNIRLostPackets 	9846
scalar Scenario2_SlowSpeed.node[126].nic.mac1609_4 	RXTXLostPackets 	2
scalar Scenario2_SlowSpeed.node[126].nic.mac1609_4 	TotalLostPackets 	9848
scalar Scenario2_SlowSpeed.node[126].nic.mac1609_4 	DroppedPacketsInMac 	0
scalar Scenario2_SlowSpeed.node[126].nic.mac1609_4 	TooLittleTime 	0
scalar Scenario2_SlowSpeed.node[126].nic.mac1609_4 	TimesIntoBackoff 	471
scalar Scenario2_SlowSpeed.node[126].nic.mac1609_4 	SlotsBackoff 	694
scalar Scenario2_SlowSpeed.node[126].nic.mac1609_4 	NumInternalContention 	0
scalar Scenario2_SlowSpeed.node[126].nic.mac1609_4 	totalBusyTime 	9.141924002227
scalar Scenario2_SlowSpeed.node[126].veinsmobility 	startTime 	13
scalar Scenario2_SlowSpeed.node[126].veinsmobility 	totalTime 	47
scalar Scenario2_SlowSpeed.node[126].veinsmobility 	stopTime 	60
scalar Scenario2_SlowSpeed.node[126].veinsmobility 	minSpeed 	0
scalar Scenario2_SlowSpeed.node[126].veinsmobility 	maxSpeed 	5.0860990736323
scalar Scenario2_SlowSpeed.node[126].veinsmobility 	totalDistance 	43.367370961873
scalar Scenario2_SlowSpeed.node[126].veinsmobility 	totalCO2Emission 	52.31446185991
scalar Scenario2_SlowSpeed.node[48].appl 	generatedWSMs 	1
scalar Scenario2_SlowSpeed.node[48].appl 	receivedWSMs 	161
scalar Scenario2_SlowSpeed.node[48].appl 	generatedBSMs 	580
scalar Scenario2_SlowSpeed.node[48].appl 	receivedBSMs 	86747
scalar Scenario2_SlowSpeed.node[48].appl 	generatedWSAs 	0
scalar Scenario2_SlowSpeed.node[48].appl 	receivedWSAs 	0
scalar Scenario2_SlowSpeed.node[48].appl 	delayWSM 	0.00024036234
scalar Scenario2_SlowSpeed.node[48].appl 	Dist_Propa 	307.53136748566
scalar Scenario2_SlowSpeed.node[48].nic.phy80211p 	busyTime 	0.17463737931065
scalar Scenario2_SlowSpeed.node[48].nic.phy80211p 	ncollisions 	4799
scalar Scenario2_SlowSpeed.node[48].nic.mac1609_4 	ReceivedUnicastPackets 	0
scalar Scenario2_SlowSpeed.node[48].nic.mac1609_4 	ReceivedBroadcasts 	86908
scalar Scenario2_SlowSpeed.node[48].nic.mac1609_4 	SentPackets 	581
scalar Scenario2_SlowSpeed.node[48].nic.mac1609_4 	SNIRLostPackets 	10241
scalar Scenario2_SlowSpeed.node[48].nic.mac1609_4 	RXTXLostPackets 	1
scalar Scenario2_SlowSpeed.node[48].nic.mac1609_4 	TotalLostPackets 	10242
scalar Scenario2_SlowSpeed.node[48].nic.mac1609_4 	DroppedPacketsInMac 	0
scalar Scenario2_SlowSpeed.node[48].nic.mac1609_4 	TooLittleTime 	0
scalar Scenario2_SlowSpeed.node[48].nic.mac1609_4 	TimesIntoBackoff 	584
scalar Scenario2_SlowSpeed.node[48].nic.mac1609_4 	SlotsBackoff 	851
scalar Scenario2_SlowSpeed.node[48].nic.mac1609_4 	NumInternalContention 	0
scalar Scenario2_SlowSpeed.node[48].nic.mac1609_4 	totalBusyTime 	9.621487536444
scalar Scenario2_SlowSpeed.node[48].veinsmobility 	startTime 	2
scalar Scenario2_SlowSpeed.node[48].veinsmobility 	totalTime 	58
scalar Scenario2_SlowSpeed.node[48].veinsmobility 	stopTime 	60
scalar Scenario2_SlowSpeed.node[48].veinsmobility 	minSpeed 	0.55958808761422
scalar Scenario2_SlowSpeed.node[48].veinsmobility 	maxSpeed 	7.9944861674053
scalar Scenario2_SlowSpeed.node[48].veinsmobility 	totalDistance 	342.53296497592
scalar Scenario2_SlowSpeed.node[48].veinsmobility 	totalCO2Emission 	100.11539423118
scalar Scenario2_SlowSpeed.node[127].appl 	generatedWSMs 	1
scalar Scenario2_SlowSpeed.node[127].appl 	receivedWSMs 	172
scalar Scenario2_SlowSpeed.node[127].appl 	generatedBSMs 	470
scalar Scenario2_SlowSpeed.node[127].appl 	receivedBSMs 	80687
scalar Scenario2_SlowSpeed.node[127].appl 	generatedWSAs 	0
scalar Scenario2_SlowSpeed.node[127].appl 	receivedWSAs 	0
scalar Scenario2_SlowSpeed.node[127].appl 	delayWSM 	0.000239789108
scalar Scenario2_SlowSpeed.node[127].appl 	Dist_Propa 	164.24648445863
scalar Scenario2_SlowSpeed.node[127].nic.phy80211p 	busyTime 	0.19838859574501
scalar Scenario2_SlowSpeed.node[127].nic.phy80211p 	ncollisions 	3925
scalar Scenario2_SlowSpeed.node[127].nic.mac1609_4 	ReceivedUnicastPackets 	0
scalar Scenario2_SlowSpeed.node[127].nic.mac1609_4 	ReceivedBroadcasts 	80859
scalar Scenario2_SlowSpeed.node[127].nic.mac1609_4 	SentPackets 	471
scalar Scenario2_SlowSpeed.node[127].nic.mac1609_4 	SNIRLostPackets 	8517
scalar Scenario2_SlowSpeed.node[127].nic.mac1609_4 	RXTXLostPackets 	1
scalar Scenario2_SlowSpeed.node[127].nic.mac1609_4 	TotalLostPackets 	8518
scalar Scenario2_SlowSpeed.node[127].nic.mac1609_4 	DroppedPacketsInMac 	0
scalar Scenario2_SlowSpeed.node[127].nic.mac1609_4 	TooLittleTime 	0
scalar Scenario2_SlowSpeed.node[127].nic.mac1609_4 	TimesIntoBackoff 	472
scalar Scenario2_SlowSpeed.node[127].nic.mac1609_4 	SlotsBackoff 	701
scalar Scenario2_SlowSpeed.node[127].nic.mac1609_4 	NumInternalContention 	0
scalar Scenario2_SlowSpeed.node[127].nic.mac1609_4 	totalBusyTime 	8.8951729981
scalar Scenario2_SlowSpeed.node[127].veinsmobility 	startTime 	13
scalar Scenario2_SlowSpeed.node[127].veinsmobility 	totalTime 	47
scalar Scenario2_SlowSpeed.node[127].veinsmobility 	stopTime 	60
scalar Scenario2_SlowSpeed.node[127].veinsmobility 	minSpeed 	0
scalar Scenario2_SlowSpeed.node[127].veinsmobility 	maxSpeed 	2.3748881724772
scalar Scenario2_SlowSpeed.node[127].veinsmobility 	totalDistance 	55.327749172271
scalar Scenario2_SlowSpeed.node[127].veinsmobility 	totalCO2Emission 	49.622803009147
scalar Scenario2_SlowSpeed.node[128].appl 	generatedWSMs 	1
scalar Scenario2_SlowSpeed.node[128].appl 	receivedWSMs 	163
scalar Scenario2_SlowSpeed.node[128].appl 	generatedBSMs 	460
scalar Scenario2_SlowSpeed.node[128].appl 	receivedBSMs 	81561
scalar Scenario2_SlowSpeed.node[128].appl 	generatedWSAs 	0
scalar Scenario2_SlowSpeed.node[128].appl 	receivedWSAs 	0
scalar Scenario2_SlowSpeed.node[128].appl 	delayWSM 	0.000240037939
scalar Scenario2_SlowSpeed.node[128].appl 	Dist_Propa 	209.53956101199
scalar Scenario2_SlowSpeed.node[128].nic.phy80211p 	busyTime 	0.20728800000035
scalar Scenario2_SlowSpeed.node[128].nic.phy80211p 	ncollisions 	4383
scalar Scenario2_SlowSpeed.node[128].nic.mac1609_4 	ReceivedUnicastPackets 	0
scalar Scenario2_SlowSpeed.node[128].nic.mac1609_4 	ReceivedBroadcasts 	81724
scalar Scenario2_SlowSpeed.node[128].nic.mac1609_4 	SentPackets 	461
scalar Scenario2_SlowSpeed.node[128].nic.mac1609_4 	SNIRLostPackets 	9710
scalar Scenario2_SlowSpeed.node[128].nic.mac1609_4 	RXTXLostPackets 	1
scalar Scenario2_SlowSpeed.node[128].nic.mac1609_4 	TotalLostPackets 	9711
scalar Scenario2_SlowSpeed.node[128].nic.mac1609_4 	DroppedPacketsInMac 	0
scalar Scenario2_SlowSpeed.node[128].nic.mac1609_4 	TooLittleTime 	0
scalar Scenario2_SlowSpeed.node[128].nic.mac1609_4 	TimesIntoBackoff 	462
scalar Scenario2_SlowSpeed.node[128].nic.mac1609_4 	SlotsBackoff 	673
scalar Scenario2_SlowSpeed.node[128].nic.mac1609_4 	NumInternalContention 	0
scalar Scenario2_SlowSpeed.node[128].nic.mac1609_4 	totalBusyTime 	9.027167045215
scalar Scenario2_SlowSpeed.node[128].veinsmobility 	startTime 	14
scalar Scenario2_SlowSpeed.node[128].veinsmobility 	totalTime 	46
scalar Scenario2_SlowSpeed.node[128].veinsmobility 	stopTime 	60
scalar Scenario2_SlowSpeed.node[128].veinsmobility 	minSpeed 	0.037277266174073
scalar Scenario2_SlowSpeed.node[128].veinsmobility 	maxSpeed 	7.980377191134
scalar Scenario2_SlowSpeed.node[128].veinsmobility 	totalDistance 	138.95664590893
scalar Scenario2_SlowSpeed.node[128].veinsmobility 	totalCO2Emission 	60.32061832808
scalar Scenario2_SlowSpeed.node[129].appl 	generatedWSMs 	1
scalar Scenario2_SlowSpeed.node[129].appl 	receivedWSMs 	172
scalar Scenario2_SlowSpeed.node[129].appl 	generatedBSMs 	460
scalar Scenario2_SlowSpeed.node[129].appl 	receivedBSMs 	76590
scalar Scenario2_SlowSpeed.node[129].appl 	generatedWSAs 	0
scalar Scenario2_SlowSpeed.node[129].appl 	receivedWSAs 	0
scalar Scenario2_SlowSpeed.node[129].appl 	delayWSM 	0.000239547461
scalar Scenario2_SlowSpeed.node[129].appl 	Dist_Propa 	203.20413033237
scalar Scenario2_SlowSpeed.node[129].nic.phy80211p 	busyTime 	0.18744782608724
scalar Scenario2_SlowSpeed.node[129].nic.phy80211p 	ncollisions 	2466
scalar Scenario2_SlowSpeed.node[129].nic.mac1609_4 	ReceivedUnicastPackets 	0
scalar Scenario2_SlowSpeed.node[129].nic.mac1609_4 	ReceivedBroadcasts 	76762
scalar Scenario2_SlowSpeed.node[129].nic.mac1609_4 	SentPackets 	461
scalar Scenario2_SlowSpeed.node[129].nic.mac1609_4 	SNIRLostPackets 	5883
scalar Scenario2_SlowSpeed.node[129].nic.mac1609_4 	RXTXLostPackets 	0
scalar Scenario2_SlowSpeed.node[129].nic.mac1609_4 	TotalLostPackets 	5883
scalar Scenario2_SlowSpeed.node[129].nic.mac1609_4 	DroppedPacketsInMac 	0
scalar Scenario2_SlowSpeed.node[129].nic.mac1609_4 	TooLittleTime 	0
scalar Scenario2_SlowSpeed.node[129].nic.mac1609_4 	TimesIntoBackoff 	462
scalar Scenario2_SlowSpeed.node[129].nic.mac1609_4 	SlotsBackoff 	698
scalar Scenario2_SlowSpeed.node[129].nic.mac1609_4 	NumInternalContention 	0
scalar Scenario2_SlowSpeed.node[129].nic.mac1609_4 	totalBusyTime 	8.312699318643
scalar Scenario2_SlowSpeed.node[129].veinsmobility 	startTime 	14
scalar Scenario2_SlowSpeed.node[129].veinsmobility 	totalTime 	46
scalar Scenario2_SlowSpeed.node[129].veinsmobility 	stopTime 	60
scalar Scenario2_SlowSpeed.node[129].veinsmobility 	minSpeed 	4.552695989943e-14
scalar Scenario2_SlowSpeed.node[129].veinsmobility 	maxSpeed 	6.2170943317923
scalar Scenario2_SlowSpeed.node[129].veinsmobility 	totalDistance 	67.998235003909
scalar Scenario2_SlowSpeed.node[129].veinsmobility 	totalCO2Emission 	54.99878213461
scalar Scenario2_SlowSpeed.node[130].appl 	generatedWSMs 	1
scalar Scenario2_SlowSpeed.node[130].appl 	receivedWSMs 	168
scalar Scenario2_SlowSpeed.node[130].appl 	generatedBSMs 	460
scalar Scenario2_SlowSpeed.node[130].appl 	receivedBSMs 	76364
scalar Scenario2_SlowSpeed.node[130].appl 	generatedWSAs 	0
scalar Scenario2_SlowSpeed.node[130].appl 	receivedWSAs 	0
scalar Scenario2_SlowSpeed.node[130].appl 	delayWSM 	0.000239552007
scalar Scenario2_SlowSpeed.node[130].appl 	Dist_Propa 	238.43128600549
scalar Scenario2_SlowSpeed.node[130].nic.phy80211p 	busyTime 	0.18655373913072
scalar Scenario2_SlowSpeed.node[130].nic.phy80211p 	ncollisions 	2353
scalar Scenario2_SlowSpeed.node[130].nic.mac1609_4 	ReceivedUnicastPackets 	0
scalar Scenario2_SlowSpeed.node[130].nic.mac1609_4 	ReceivedBroadcasts 	76532
scalar Scenario2_SlowSpeed.node[130].nic.mac1609_4 	SentPackets 	461
scalar Scenario2_SlowSpeed.node[130].nic.mac1609_4 	SNIRLostPackets 	5720
scalar Scenario2_SlowSpeed.node[130].nic.mac1609_4 	RXTXLostPackets 	1
scalar Scenario2_SlowSpeed.node[130].nic.mac1609_4 	TotalLostPackets 	5721
scalar Scenario2_SlowSpeed.node[130].nic.mac1609_4 	DroppedPacketsInMac 	0
scalar Scenario2_SlowSpeed.node[130].nic.mac1609_4 	TooLittleTime 	0
scalar Scenario2_SlowSpeed.node[130].nic.mac1609_4 	TimesIntoBackoff 	463
scalar Scenario2_SlowSpeed.node[130].nic.mac1609_4 	SlotsBackoff 	733
scalar Scenario2_SlowSpeed.node[130].nic.mac1609_4 	NumInternalContention 	0
scalar Scenario2_SlowSpeed.node[130].nic.mac1609_4 	totalBusyTime 	8.276898171806
scalar Scenario2_SlowSpeed.node[130].veinsmobility 	startTime 	14
scalar Scenario2_SlowSpeed.node[130].veinsmobility 	totalTime 	46
scalar Scenario2_SlowSpeed.node[130].veinsmobility 	stopTime 	60
scalar Scenario2_SlowSpeed.node[130].veinsmobility 	minSpeed 	0
scalar Scenario2_SlowSpeed.node[130].veinsmobility 	maxSpeed 	6.0183958290253
scalar Scenario2_SlowSpeed.node[130].veinsmobility 	totalDistance 	67.385200339196
scalar Scenario2_SlowSpeed.node[130].veinsmobility 	totalCO2Emission 	55.006745868216
scalar Scenario2_SlowSpeed.node[49].appl 	generatedWSMs 	1
scalar Scenario2_SlowSpeed.node[49].appl 	receivedWSMs 	114
scalar Scenario2_SlowSpeed.node[49].appl 	generatedBSMs 	580
scalar Scenario2_SlowSpeed.node[49].appl 	receivedBSMs 	64936
scalar Scenario2_SlowSpeed.node[49].appl 	generatedWSAs 	0
scalar Scenario2_SlowSpeed.node[49].appl 	receivedWSAs 	0
scalar Scenario2_SlowSpeed.node[49].appl 	delayWSM 	2.011050314017
scalar Scenario2_SlowSpeed.node[49].appl 	Dist_Propa 	526.7220824848
scalar Scenario2_SlowSpeed.node[49].nic.phy80211p 	busyTime 	0.12937420689672
scalar Scenario2_SlowSpeed.node[49].nic.phy80211p 	ncollisions 	3536
scalar Scenario2_SlowSpeed.node[49].nic.mac1609_4 	ReceivedUnicastPackets 	0
scalar Scenario2_SlowSpeed.node[49].nic.mac1609_4 	ReceivedBroadcasts 	65050
scalar Scenario2_SlowSpeed.node[49].nic.mac1609_4 	SentPackets 	581
scalar Scenario2_SlowSpeed.node[49].nic.mac1609_4 	SNIRLostPackets 	6908
scalar Scenario2_SlowSpeed.node[49].nic.mac1609_4 	RXTXLostPackets 	97
scalar Scenario2_SlowSpeed.node[49].nic.mac1609_4 	TotalLostPackets 	7005
scalar Scenario2_SlowSpeed.node[49].nic.mac1609_4 	DroppedPacketsInMac 	0
scalar Scenario2_SlowSpeed.node[49].nic.mac1609_4 	TooLittleTime 	0
scalar Scenario2_SlowSpeed.node[49].nic.mac1609_4 	TimesIntoBackoff 	601
scalar Scenario2_SlowSpeed.node[49].nic.mac1609_4 	SlotsBackoff 	901
scalar Scenario2_SlowSpeed.node[49].nic.mac1609_4 	NumInternalContention 	0
scalar Scenario2_SlowSpeed.node[49].nic.mac1609_4 	totalBusyTime 	7.212717625887
scalar Scenario2_SlowSpeed.node[49].veinsmobility 	startTime 	2
scalar Scenario2_SlowSpeed.node[49].veinsmobility 	totalTime 	58
scalar Scenario2_SlowSpeed.node[49].veinsmobility 	stopTime 	60
scalar Scenario2_SlowSpeed.node[49].veinsmobility 	minSpeed 	4.128183642186
scalar Scenario2_SlowSpeed.node[49].veinsmobility 	maxSpeed 	7.9991118872352
scalar Scenario2_SlowSpeed.node[49].veinsmobility 	totalDistance 	452.07994726397
scalar Scenario2_SlowSpeed.node[49].veinsmobility 	totalCO2Emission 	94.033149115318
scalar Scenario2_SlowSpeed.node[131].appl 	generatedWSMs 	1
scalar Scenario2_SlowSpeed.node[131].appl 	receivedWSMs 	157
scalar Scenario2_SlowSpeed.node[131].appl 	generatedBSMs 	460
scalar Scenario2_SlowSpeed.node[131].appl 	receivedBSMs 	71572
scalar Scenario2_SlowSpeed.node[131].appl 	generatedWSAs 	0
scalar Scenario2_SlowSpeed.node[131].appl 	receivedWSAs 	0
scalar Scenario2_SlowSpeed.node[131].appl 	delayWSM 	0.000240480553
scalar Scenario2_SlowSpeed.node[131].appl 	Dist_Propa 	135.94449745882
scalar Scenario2_SlowSpeed.node[131].nic.phy80211p 	busyTime 	0.1767333913046
scalar Scenario2_SlowSpeed.node[131].nic.phy80211p 	ncollisions 	2708
scalar Scenario2_SlowSpeed.node[131].nic.mac1609_4 	ReceivedUnicastPackets 	0
scalar Scenario2_SlowSpeed.node[131].nic.mac1609_4 	ReceivedBroadcasts 	71729
scalar Scenario2_SlowSpeed.node[131].nic.mac1609_4 	SentPackets 	461
scalar Scenario2_SlowSpeed.node[131].nic.mac1609_4 	SNIRLostPackets 	6204
scalar Scenario2_SlowSpeed.node[131].nic.mac1609_4 	RXTXLostPackets 	0
scalar Scenario2_SlowSpeed.node[131].nic.mac1609_4 	TotalLostPackets 	6204
scalar Scenario2_SlowSpeed.node[131].nic.mac1609_4 	DroppedPacketsInMac 	0
scalar Scenario2_SlowSpeed.node[131].nic.mac1609_4 	TooLittleTime 	0
scalar Scenario2_SlowSpeed.node[131].nic.mac1609_4 	TimesIntoBackoff 	461
scalar Scenario2_SlowSpeed.node[131].nic.mac1609_4 	SlotsBackoff 	686
scalar Scenario2_SlowSpeed.node[131].nic.mac1609_4 	NumInternalContention 	0
scalar Scenario2_SlowSpeed.node[131].nic.mac1609_4 	totalBusyTime 	7.81338498546
scalar Scenario2_SlowSpeed.node[131].veinsmobility 	startTime 	14
scalar Scenario2_SlowSpeed.node[131].veinsmobility 	totalTime 	46
scalar Scenario2_SlowSpeed.node[131].veinsmobility 	stopTime 	60
scalar Scenario2_SlowSpeed.node[131].veinsmobility 	minSpeed 	0.17680583201903
scalar Scenario2_SlowSpeed.node[131].veinsmobility 	maxSpeed 	7.9973660864471
scalar Scenario2_SlowSpeed.node[131].veinsmobility 	totalDistance 	307.83528981071
scalar Scenario2_SlowSpeed.node[131].veinsmobility 	totalCO2Emission 	77.066696235837
scalar Scenario2_SlowSpeed.node[132].appl 	generatedWSMs 	1
scalar Scenario2_SlowSpeed.node[132].appl 	receivedWSMs 	172
scalar Scenario2_SlowSpeed.node[132].appl 	generatedBSMs 	460
scalar Scenario2_SlowSpeed.node[132].appl 	receivedBSMs 	79366
scalar Scenario2_SlowSpeed.node[132].appl 	generatedWSAs 	0
scalar Scenario2_SlowSpeed.node[132].appl 	receivedWSAs 	0
scalar Scenario2_SlowSpeed.node[132].appl 	delayWSM 	0.000239754084
scalar Scenario2_SlowSpeed.node[132].appl 	Dist_Propa 	185.74431930136
scalar Scenario2_SlowSpeed.node[132].nic.phy80211p 	busyTime 	0.19898852173945
scalar Scenario2_SlowSpeed.node[132].nic.phy80211p 	ncollisions 	3735
scalar Scenario2_SlowSpeed.node[132].nic.mac1609_4 	ReceivedUnicastPackets 	0
scalar Scenario2_SlowSpeed.node[132].nic.mac1609_4 	ReceivedBroadcasts 	79538
scalar Scenario2_SlowSpeed.node[132].nic.mac1609_4 	SentPackets 	461
scalar Scenario2_SlowSpeed.node[132].nic.mac1609_4 	SNIRLostPackets 	8198
scalar Scenario2_SlowSpeed.node[132].nic.mac1609_4 	RXTXLostPackets 	0
scalar Scenario2_SlowSpeed.node[132].nic.mac1609_4 	TotalLostPackets 	8198
scalar Scenario2_SlowSpeed.node[132].nic.mac1609_4 	DroppedPacketsInMac 	0
scalar Scenario2_SlowSpeed.node[132].nic.mac1609_4 	TooLittleTime 	0
scalar Scenario2_SlowSpeed.node[132].nic.mac1609_4 	TimesIntoBackoff 	724
scalar Scenario2_SlowSpeed.node[132].nic.mac1609_4 	SlotsBackoff 	1057
scalar Scenario2_SlowSpeed.node[132].nic.mac1609_4 	NumInternalContention 	0
scalar Scenario2_SlowSpeed.node[132].nic.mac1609_4 	totalBusyTime 	8.735768193649
scalar Scenario2_SlowSpeed.node[132].veinsmobility 	startTime 	14
scalar Scenario2_SlowSpeed.node[132].veinsmobility 	totalTime 	46
scalar Scenario2_SlowSpeed.node[132].veinsmobility 	stopTime 	60
scalar Scenario2_SlowSpeed.node[132].veinsmobility 	minSpeed 	0
scalar Scenario2_SlowSpeed.node[132].veinsmobility 	maxSpeed 	3.2867726092964
scalar Scenario2_SlowSpeed.node[132].veinsmobility 	totalDistance 	62.732486327644
scalar Scenario2_SlowSpeed.node[132].veinsmobility 	totalCO2Emission 	49.5032643108
scalar Scenario2_SlowSpeed.node[4].appl 	generatedWSMs 	1
scalar Scenario2_SlowSpeed.node[4].appl 	receivedWSMs 	159
scalar Scenario2_SlowSpeed.node[4].appl 	generatedBSMs 	590
scalar Scenario2_SlowSpeed.node[4].appl 	receivedBSMs 	83352
scalar Scenario2_SlowSpeed.node[4].appl 	generatedWSAs 	0
scalar Scenario2_SlowSpeed.node[4].appl 	receivedWSAs 	0
scalar Scenario2_SlowSpeed.node[4].appl 	delayWSM 	0.00024043776
scalar Scenario2_SlowSpeed.node[4].appl 	Dist_Propa 	206.05420878988
scalar Scenario2_SlowSpeed.node[4].nic.phy80211p 	busyTime 	0.16535389830537
scalar Scenario2_SlowSpeed.node[4].nic.phy80211p 	ncollisions 	4996
scalar Scenario2_SlowSpeed.node[4].nic.mac1609_4 	ReceivedUnicastPackets 	0
scalar Scenario2_SlowSpeed.node[4].nic.mac1609_4 	ReceivedBroadcasts 	83511
scalar Scenario2_SlowSpeed.node[4].nic.mac1609_4 	SentPackets 	591
scalar Scenario2_SlowSpeed.node[4].nic.mac1609_4 	SNIRLostPackets 	10041
scalar Scenario2_SlowSpeed.node[4].nic.mac1609_4 	RXTXLostPackets 	103
scalar Scenario2_SlowSpeed.node[4].nic.mac1609_4 	TotalLostPackets 	10144
scalar Scenario2_SlowSpeed.node[4].nic.mac1609_4 	DroppedPacketsInMac 	0
scalar Scenario2_SlowSpeed.node[4].nic.mac1609_4 	TooLittleTime 	0
scalar Scenario2_SlowSpeed.node[4].nic.mac1609_4 	TimesIntoBackoff 	1151
scalar Scenario2_SlowSpeed.node[4].nic.mac1609_4 	SlotsBackoff 	1783
scalar Scenario2_SlowSpeed.node[4].nic.mac1609_4 	NumInternalContention 	0
scalar Scenario2_SlowSpeed.node[4].nic.mac1609_4 	totalBusyTime 	9.290463595679
scalar Scenario2_SlowSpeed.node[4].veinsmobility 	startTime 	1
scalar Scenario2_SlowSpeed.node[4].veinsmobility 	totalTime 	59
scalar Scenario2_SlowSpeed.node[4].veinsmobility 	stopTime 	60
scalar Scenario2_SlowSpeed.node[4].veinsmobility 	minSpeed 	0
scalar Scenario2_SlowSpeed.node[4].veinsmobility 	maxSpeed 	7.998761665849
scalar Scenario2_SlowSpeed.node[4].veinsmobility 	totalDistance 	221.48228246567
scalar Scenario2_SlowSpeed.node[4].veinsmobility 	totalCO2Emission 	86.618680082818
scalar Scenario2_SlowSpeed.node[133].appl 	generatedWSMs 	1
scalar Scenario2_SlowSpeed.node[133].appl 	receivedWSMs 	163
scalar Scenario2_SlowSpeed.node[133].appl 	generatedBSMs 	460
scalar Scenario2_SlowSpeed.node[133].appl 	receivedBSMs 	81436
scalar Scenario2_SlowSpeed.node[133].appl 	generatedWSAs 	0
scalar Scenario2_SlowSpeed.node[133].appl 	receivedWSAs 	0
scalar Scenario2_SlowSpeed.node[133].appl 	delayWSM 	0.000239995557
scalar Scenario2_SlowSpeed.node[133].appl 	Dist_Propa 	300.20230193585
scalar Scenario2_SlowSpeed.node[133].nic.phy80211p 	busyTime 	0.206986608696
scalar Scenario2_SlowSpeed.node[133].nic.phy80211p 	ncollisions 	4369
scalar Scenario2_SlowSpeed.node[133].nic.mac1609_4 	ReceivedUnicastPackets 	0
scalar Scenario2_SlowSpeed.node[133].nic.mac1609_4 	ReceivedBroadcasts 	81599
scalar Scenario2_SlowSpeed.node[133].nic.mac1609_4 	SentPackets 	461
scalar Scenario2_SlowSpeed.node[133].nic.mac1609_4 	SNIRLostPackets 	9532
scalar Scenario2_SlowSpeed.node[133].nic.mac1609_4 	RXTXLostPackets 	166
scalar Scenario2_SlowSpeed.node[133].nic.mac1609_4 	TotalLostPackets 	9698
scalar Scenario2_SlowSpeed.node[133].nic.mac1609_4 	DroppedPacketsInMac 	0
scalar Scenario2_SlowSpeed.node[133].nic.mac1609_4 	TooLittleTime 	0
scalar Scenario2_SlowSpeed.node[133].nic.mac1609_4 	TimesIntoBackoff 	731
scalar Scenario2_SlowSpeed.node[133].nic.mac1609_4 	SlotsBackoff 	1083
scalar Scenario2_SlowSpeed.node[133].nic.mac1609_4 	NumInternalContention 	0
scalar Scenario2_SlowSpeed.node[133].nic.mac1609_4 	totalBusyTime 	9.013071916825
scalar Scenario2_SlowSpeed.node[133].veinsmobility 	startTime 	14
scalar Scenario2_SlowSpeed.node[133].veinsmobility 	totalTime 	46
scalar Scenario2_SlowSpeed.node[133].veinsmobility 	stopTime 	60
scalar Scenario2_SlowSpeed.node[133].veinsmobility 	minSpeed 	0.10445820526975
scalar Scenario2_SlowSpeed.node[133].veinsmobility 	maxSpeed 	7.9972986633936
scalar Scenario2_SlowSpeed.node[133].veinsmobility 	totalDistance 	170.69921458409
scalar Scenario2_SlowSpeed.node[133].veinsmobility 	totalCO2Emission 	62.419569569484
scalar Scenario2_SlowSpeed.node[134].appl 	generatedWSMs 	1
scalar Scenario2_SlowSpeed.node[134].appl 	receivedWSMs 	170
scalar Scenario2_SlowSpeed.node[134].appl 	generatedBSMs 	460
scalar Scenario2_SlowSpeed.node[134].appl 	receivedBSMs 	79954
scalar Scenario2_SlowSpeed.node[134].appl 	generatedWSAs 	0
scalar Scenario2_SlowSpeed.node[134].appl 	receivedWSAs 	0
scalar Scenario2_SlowSpeed.node[134].appl 	delayWSM 	0.000239837038
scalar Scenario2_SlowSpeed.node[134].appl 	Dist_Propa 	133.42353811115
scalar Scenario2_SlowSpeed.node[134].nic.phy80211p 	busyTime 	0.2018874782612
scalar Scenario2_SlowSpeed.node[134].nic.phy80211p 	ncollisions 	4147
scalar Scenario2_SlowSpeed.node[134].nic.mac1609_4 	ReceivedUnicastPackets 	0
scalar Scenario2_SlowSpeed.node[134].nic.mac1609_4 	ReceivedBroadcasts 	80124
scalar Scenario2_SlowSpeed.node[134].nic.mac1609_4 	SentPackets 	461
scalar Scenario2_SlowSpeed.node[134].nic.mac1609_4 	SNIRLostPackets 	8893
scalar Scenario2_SlowSpeed.node[134].nic.mac1609_4 	RXTXLostPackets 	1
scalar Scenario2_SlowSpeed.node[134].nic.mac1609_4 	TotalLostPackets 	8894
scalar Scenario2_SlowSpeed.node[134].nic.mac1609_4 	DroppedPacketsInMac 	0
scalar Scenario2_SlowSpeed.node[134].nic.mac1609_4 	TooLittleTime 	0
scalar Scenario2_SlowSpeed.node[134].nic.mac1609_4 	TimesIntoBackoff 	463
scalar Scenario2_SlowSpeed.node[134].nic.mac1609_4 	SlotsBackoff 	711
scalar Scenario2_SlowSpeed.node[134].nic.mac1609_4 	NumInternalContention 	0
scalar Scenario2_SlowSpeed.node[134].nic.mac1609_4 	totalBusyTime 	8.83980214823
scalar Scenario2_SlowSpeed.node[134].veinsmobility 	startTime 	14
scalar Scenario2_SlowSpeed.node[134].veinsmobility 	totalTime 	46
scalar Scenario2_SlowSpeed.node[134].veinsmobility 	stopTime 	60
scalar Scenario2_SlowSpeed.node[134].veinsmobility 	minSpeed 	0
scalar Scenario2_SlowSpeed.node[134].veinsmobility 	maxSpeed 	3.0139677684894
scalar Scenario2_SlowSpeed.node[134].veinsmobility 	totalDistance 	45.514716471293
scalar Scenario2_SlowSpeed.node[134].veinsmobility 	totalCO2Emission 	48.764261989621
scalar Scenario2_SlowSpeed.node[135].appl 	generatedWSMs 	1
scalar Scenario2_SlowSpeed.node[135].appl 	receivedWSMs 	173
scalar Scenario2_SlowSpeed.node[135].appl 	generatedBSMs 	460
scalar Scenario2_SlowSpeed.node[135].appl 	receivedBSMs 	79033
scalar Scenario2_SlowSpeed.node[135].appl 	generatedWSAs 	0
scalar Scenario2_SlowSpeed.node[135].appl 	receivedWSAs 	0
scalar Scenario2_SlowSpeed.node[135].appl 	delayWSM 	0.000239686611
scalar Scenario2_SlowSpeed.node[135].appl 	Dist_Propa 	170.32550133369
scalar Scenario2_SlowSpeed.node[135].nic.phy80211p 	busyTime 	0.19680295652206
scalar Scenario2_SlowSpeed.node[135].nic.phy80211p 	ncollisions 	3336
scalar Scenario2_SlowSpeed.node[135].nic.mac1609_4 	ReceivedUnicastPackets 	0
scalar Scenario2_SlowSpeed.node[135].nic.mac1609_4 	ReceivedBroadcasts 	79206
scalar Scenario2_SlowSpeed.node[135].nic.mac1609_4 	SentPackets 	461
scalar Scenario2_SlowSpeed.node[135].nic.mac1609_4 	SNIRLostPackets 	7567
scalar Scenario2_SlowSpeed.node[135].nic.mac1609_4 	RXTXLostPackets 	0
scalar Scenario2_SlowSpeed.node[135].nic.mac1609_4 	TotalLostPackets 	7567
scalar Scenario2_SlowSpeed.node[135].nic.mac1609_4 	DroppedPacketsInMac 	0
scalar Scenario2_SlowSpeed.node[135].nic.mac1609_4 	TooLittleTime 	0
scalar Scenario2_SlowSpeed.node[135].nic.mac1609_4 	TimesIntoBackoff 	462
scalar Scenario2_SlowSpeed.node[135].nic.mac1609_4 	SlotsBackoff 	752
scalar Scenario2_SlowSpeed.node[135].nic.mac1609_4 	NumInternalContention 	0
scalar Scenario2_SlowSpeed.node[135].nic.mac1609_4 	totalBusyTime 	8.658119024159
scalar Scenario2_SlowSpeed.node[135].veinsmobility 	startTime 	14
scalar Scenario2_SlowSpeed.node[135].veinsmobility 	totalTime 	46
scalar Scenario2_SlowSpeed.node[135].veinsmobility 	stopTime 	60
scalar Scenario2_SlowSpeed.node[135].veinsmobility 	minSpeed 	0.25971952628763
scalar Scenario2_SlowSpeed.node[135].veinsmobility 	maxSpeed 	4.0300765405005
scalar Scenario2_SlowSpeed.node[135].veinsmobility 	totalDistance 	76.975584257825
scalar Scenario2_SlowSpeed.node[135].veinsmobility 	totalCO2Emission 	53.496626076073
scalar Scenario2_SlowSpeed.node[136].appl 	generatedWSMs 	1
scalar Scenario2_SlowSpeed.node[136].appl 	receivedWSMs 	154
scalar Scenario2_SlowSpeed.node[136].appl 	generatedBSMs 	460
scalar Scenario2_SlowSpeed.node[136].appl 	receivedBSMs 	68822
scalar Scenario2_SlowSpeed.node[136].appl 	generatedWSAs 	0
scalar Scenario2_SlowSpeed.node[136].appl 	receivedWSAs 	0
scalar Scenario2_SlowSpeed.node[136].appl 	delayWSM 	0.000239827389
scalar Scenario2_SlowSpeed.node[136].appl 	Dist_Propa 	367.96381337151
scalar Scenario2_SlowSpeed.node[136].nic.phy80211p 	busyTime 	0.16397878260891
scalar Scenario2_SlowSpeed.node[136].nic.phy80211p 	ncollisions 	1316
scalar Scenario2_SlowSpeed.node[136].nic.mac1609_4 	ReceivedUnicastPackets 	0
scalar Scenario2_SlowSpeed.node[136].nic.mac1609_4 	ReceivedBroadcasts 	68976
scalar Scenario2_SlowSpeed.node[136].nic.mac1609_4 	SentPackets 	461
scalar Scenario2_SlowSpeed.node[136].nic.mac1609_4 	SNIRLostPackets 	3318
scalar Scenario2_SlowSpeed.node[136].nic.mac1609_4 	RXTXLostPackets 	18
scalar Scenario2_SlowSpeed.node[136].nic.mac1609_4 	TotalLostPackets 	3336
scalar Scenario2_SlowSpeed.node[136].nic.mac1609_4 	DroppedPacketsInMac 	0
scalar Scenario2_SlowSpeed.node[136].nic.mac1609_4 	TooLittleTime 	0
scalar Scenario2_SlowSpeed.node[136].nic.mac1609_4 	TimesIntoBackoff 	462
scalar Scenario2_SlowSpeed.node[136].nic.mac1609_4 	SlotsBackoff 	702
scalar Scenario2_SlowSpeed.node[136].nic.mac1609_4 	NumInternalContention 	0
scalar Scenario2_SlowSpeed.node[136].nic.mac1609_4 	totalBusyTime 	7.380887754861
scalar Scenario2_SlowSpeed.node[136].veinsmobility 	startTime 	14
scalar Scenario2_SlowSpeed.node[136].veinsmobility 	totalTime 	46
scalar Scenario2_SlowSpeed.node[136].veinsmobility 	stopTime 	60
scalar Scenario2_SlowSpeed.node[136].veinsmobility 	minSpeed 	0.44558853910227
scalar Scenario2_SlowSpeed.node[136].veinsmobility 	maxSpeed 	7.9899813973787
scalar Scenario2_SlowSpeed.node[136].veinsmobility 	totalDistance 	117.76961795552
scalar Scenario2_SlowSpeed.node[136].veinsmobility 	totalCO2Emission 	62.749781603504
scalar Scenario2_SlowSpeed.node[137].appl 	generatedWSMs 	1
scalar Scenario2_SlowSpeed.node[137].appl 	receivedWSMs 	163
scalar Scenario2_SlowSpeed.node[137].appl 	generatedBSMs 	460
scalar Scenario2_SlowSpeed.node[137].appl 	receivedBSMs 	81342
scalar Scenario2_SlowSpeed.node[137].appl 	generatedWSAs 	0
scalar Scenario2_SlowSpeed.node[137].appl 	receivedWSAs 	0
scalar Scenario2_SlowSpeed.node[137].appl 	delayWSM 	0.000239908764
scalar Scenario2_SlowSpeed.node[137].appl 	Dist_Propa 	326.66023569906
scalar Scenario2_SlowSpeed.node[137].nic.phy80211p 	busyTime 	0.20652278260904
scalar Scenario2_SlowSpeed.node[137].nic.phy80211p 	ncollisions 	4309
scalar Scenario2_SlowSpeed.node[137].nic.mac1609_4 	ReceivedUnicastPackets 	0
scalar Scenario2_SlowSpeed.node[137].nic.mac1609_4 	ReceivedBroadcasts 	81505
scalar Scenario2_SlowSpeed.node[137].nic.mac1609_4 	SentPackets 	461
scalar Scenario2_SlowSpeed.node[137].nic.mac1609_4 	SNIRLostPackets 	9577
scalar Scenario2_SlowSpeed.node[137].nic.mac1609_4 	RXTXLostPackets 	93
scalar Scenario2_SlowSpeed.node[137].nic.mac1609_4 	TotalLostPackets 	9670
scalar Scenario2_SlowSpeed.node[137].nic.mac1609_4 	DroppedPacketsInMac 	0
scalar Scenario2_SlowSpeed.node[137].nic.mac1609_4 	TooLittleTime 	0
scalar Scenario2_SlowSpeed.node[137].nic.mac1609_4 	TimesIntoBackoff 	811
scalar Scenario2_SlowSpeed.node[137].nic.mac1609_4 	SlotsBackoff 	1218
scalar Scenario2_SlowSpeed.node[137].nic.mac1609_4 	NumInternalContention 	0
scalar Scenario2_SlowSpeed.node[137].nic.mac1609_4 	totalBusyTime 	8.998910515498
scalar Scenario2_SlowSpeed.node[137].veinsmobility 	startTime 	14
scalar Scenario2_SlowSpeed.node[137].veinsmobility 	totalTime 	46
scalar Scenario2_SlowSpeed.node[137].veinsmobility 	stopTime 	60
scalar Scenario2_SlowSpeed.node[137].veinsmobility 	minSpeed 	0.0011512119821862
scalar Scenario2_SlowSpeed.node[137].veinsmobility 	maxSpeed 	7.9960292543203
scalar Scenario2_SlowSpeed.node[137].veinsmobility 	totalDistance 	219.5401654672
scalar Scenario2_SlowSpeed.node[137].veinsmobility 	totalCO2Emission 	72.904897170006
scalar Scenario2_SlowSpeed.node[50].appl 	generatedWSMs 	1
scalar Scenario2_SlowSpeed.node[50].appl 	receivedWSMs 	163
scalar Scenario2_SlowSpeed.node[50].appl 	generatedBSMs 	580
scalar Scenario2_SlowSpeed.node[50].appl 	receivedBSMs 	89641
scalar Scenario2_SlowSpeed.node[50].appl 	generatedWSAs 	0
scalar Scenario2_SlowSpeed.node[50].appl 	receivedWSAs 	0
scalar Scenario2_SlowSpeed.node[50].appl 	delayWSM 	0.000240358116
scalar Scenario2_SlowSpeed.node[50].appl 	Dist_Propa 	61.242221293015
scalar Scenario2_SlowSpeed.node[50].nic.phy80211p 	busyTime 	0.17923531034515
scalar Scenario2_SlowSpeed.node[50].nic.phy80211p 	ncollisions 	4511
scalar Scenario2_SlowSpeed.node[50].nic.mac1609_4 	ReceivedUnicastPackets 	0
scalar Scenario2_SlowSpeed.node[50].nic.mac1609_4 	ReceivedBroadcasts 	89804
scalar Scenario2_SlowSpeed.node[50].nic.mac1609_4 	SentPackets 	581
scalar Scenario2_SlowSpeed.node[50].nic.mac1609_4 	SNIRLostPackets 	9906
scalar Scenario2_SlowSpeed.node[50].nic.mac1609_4 	RXTXLostPackets 	20
scalar Scenario2_SlowSpeed.node[50].nic.mac1609_4 	TotalLostPackets 	9926
scalar Scenario2_SlowSpeed.node[50].nic.mac1609_4 	DroppedPacketsInMac 	0
scalar Scenario2_SlowSpeed.node[50].nic.mac1609_4 	TooLittleTime 	0
scalar Scenario2_SlowSpeed.node[50].nic.mac1609_4 	TimesIntoBackoff 	1151
scalar Scenario2_SlowSpeed.node[50].nic.mac1609_4 	SlotsBackoff 	1744
scalar Scenario2_SlowSpeed.node[50].nic.mac1609_4 	NumInternalContention 	0
scalar Scenario2_SlowSpeed.node[50].nic.mac1609_4 	totalBusyTime 	9.893226833721
scalar Scenario2_SlowSpeed.node[50].veinsmobility 	startTime 	2
scalar Scenario2_SlowSpeed.node[50].veinsmobility 	totalTime 	58
scalar Scenario2_SlowSpeed.node[50].veinsmobility 	stopTime 	60
scalar Scenario2_SlowSpeed.node[50].veinsmobility 	minSpeed 	0
scalar Scenario2_SlowSpeed.node[50].veinsmobility 	maxSpeed 	7.9887561947617
scalar Scenario2_SlowSpeed.node[50].veinsmobility 	totalDistance 	151.56543633743
scalar Scenario2_SlowSpeed.node[50].veinsmobility 	totalCO2Emission 	81.682451808125
scalar Scenario2_SlowSpeed.node[138].appl 	generatedWSMs 	1
scalar Scenario2_SlowSpeed.node[138].appl 	receivedWSMs 	154
scalar Scenario2_SlowSpeed.node[138].appl 	generatedBSMs 	460
scalar Scenario2_SlowSpeed.node[138].appl 	receivedBSMs 	73107
scalar Scenario2_SlowSpeed.node[138].appl 	generatedWSAs 	0
scalar Scenario2_SlowSpeed.node[138].appl 	receivedWSAs 	0
scalar Scenario2_SlowSpeed.node[138].appl 	delayWSM 	0.000239781647
scalar Scenario2_SlowSpeed.node[138].appl 	Dist_Propa 	459.6082181375
scalar Scenario2_SlowSpeed.node[138].nic.phy80211p 	busyTime 	0.18057217391331
scalar Scenario2_SlowSpeed.node[138].nic.phy80211p 	ncollisions 	2827
scalar Scenario2_SlowSpeed.node[138].nic.mac1609_4 	ReceivedUnicastPackets 	0
scalar Scenario2_SlowSpeed.node[138].nic.mac1609_4 	ReceivedBroadcasts 	73261
scalar Scenario2_SlowSpeed.node[138].nic.mac1609_4 	SentPackets 	461
scalar Scenario2_SlowSpeed.node[138].nic.mac1609_4 	SNIRLostPackets 	6365
scalar Scenario2_SlowSpeed.node[138].nic.mac1609_4 	RXTXLostPackets 	2
scalar Scenario2_SlowSpeed.node[138].nic.mac1609_4 	TotalLostPackets 	6367
scalar Scenario2_SlowSpeed.node[138].nic.mac1609_4 	DroppedPacketsInMac 	0
scalar Scenario2_SlowSpeed.node[138].nic.mac1609_4 	TooLittleTime 	0
scalar Scenario2_SlowSpeed.node[138].nic.mac1609_4 	TimesIntoBackoff 	462
scalar Scenario2_SlowSpeed.node[138].nic.mac1609_4 	SlotsBackoff 	654
scalar Scenario2_SlowSpeed.node[138].nic.mac1609_4 	NumInternalContention 	0
scalar Scenario2_SlowSpeed.node[138].nic.mac1609_4 	totalBusyTime 	7.984603136078
scalar Scenario2_SlowSpeed.node[138].veinsmobility 	startTime 	14
scalar Scenario2_SlowSpeed.node[138].veinsmobility 	totalTime 	46
scalar Scenario2_SlowSpeed.node[138].veinsmobility 	stopTime 	60
scalar Scenario2_SlowSpeed.node[138].veinsmobility 	minSpeed 	2.8710507214793
scalar Scenario2_SlowSpeed.node[138].veinsmobility 	maxSpeed 	7.9995235687401
scalar Scenario2_SlowSpeed.node[138].veinsmobility 	totalDistance 	332.97462018339
scalar Scenario2_SlowSpeed.node[138].veinsmobility 	totalCO2Emission 	78.864966225494
scalar Scenario2_SlowSpeed.node[139].appl 	generatedWSMs 	1
scalar Scenario2_SlowSpeed.node[139].appl 	receivedWSMs 	163
scalar Scenario2_SlowSpeed.node[139].appl 	generatedBSMs 	460
scalar Scenario2_SlowSpeed.node[139].appl 	receivedBSMs 	81596
scalar Scenario2_SlowSpeed.node[139].appl 	generatedWSAs 	0
scalar Scenario2_SlowSpeed.node[139].appl 	receivedWSAs 	0
scalar Scenario2_SlowSpeed.node[139].appl 	delayWSM 	0.00024012163
scalar Scenario2_SlowSpeed.node[139].appl 	Dist_Propa 	127.59482649837
scalar Scenario2_SlowSpeed.node[139].nic.phy80211p 	busyTime 	0.20758469565252
scalar Scenario2_SlowSpeed.node[139].nic.phy80211p 	ncollisions 	4405
scalar Scenario2_SlowSpeed.node[139].nic.mac1609_4 	ReceivedUnicastPackets 	0
scalar Scenario2_SlowSpeed.node[139].nic.mac1609_4 	ReceivedBroadcasts 	81759
scalar Scenario2_SlowSpeed.node[139].nic.mac1609_4 	SentPackets 	461
scalar Scenario2_SlowSpeed.node[139].nic.mac1609_4 	SNIRLostPackets 	9805
scalar Scenario2_SlowSpeed.node[139].nic.mac1609_4 	RXTXLostPackets 	1
scalar Scenario2_SlowSpeed.node[139].nic.mac1609_4 	TotalLostPackets 	9806
scalar Scenario2_SlowSpeed.node[139].nic.mac1609_4 	DroppedPacketsInMac 	0
scalar Scenario2_SlowSpeed.node[139].nic.mac1609_4 	TooLittleTime 	0
scalar Scenario2_SlowSpeed.node[139].nic.mac1609_4 	TimesIntoBackoff 	682
scalar Scenario2_SlowSpeed.node[139].nic.mac1609_4 	SlotsBackoff 	1043
scalar Scenario2_SlowSpeed.node[139].nic.mac1609_4 	NumInternalContention 	0
scalar Scenario2_SlowSpeed.node[139].nic.mac1609_4 	totalBusyTime 	9.034660372475
scalar Scenario2_SlowSpeed.node[139].veinsmobility 	startTime 	14
scalar Scenario2_SlowSpeed.node[139].veinsmobility 	totalTime 	46
scalar Scenario2_SlowSpeed.node[139].veinsmobility 	stopTime 	60
scalar Scenario2_SlowSpeed.node[139].veinsmobility 	minSpeed 	0
scalar Scenario2_SlowSpeed.node[139].veinsmobility 	maxSpeed 	7.9979434607667
scalar Scenario2_SlowSpeed.node[139].veinsmobility 	totalDistance 	144.6821510057
scalar Scenario2_SlowSpeed.node[139].veinsmobility 	totalCO2Emission 	73.836815190603
scalar Scenario2_SlowSpeed.node[141].appl 	generatedWSMs 	1
scalar Scenario2_SlowSpeed.node[141].appl 	receivedWSMs 	164
scalar Scenario2_SlowSpeed.node[141].appl 	generatedBSMs 	450
scalar Scenario2_SlowSpeed.node[141].appl 	receivedBSMs 	80501
scalar Scenario2_SlowSpeed.node[141].appl 	generatedWSAs 	0
scalar Scenario2_SlowSpeed.node[141].appl 	receivedWSAs 	0
scalar Scenario2_SlowSpeed.node[141].appl 	delayWSM 	0.000240112197
scalar Scenario2_SlowSpeed.node[141].appl 	Dist_Propa 	27.229641736523
scalar Scenario2_SlowSpeed.node[141].nic.phy80211p 	busyTime 	0.20943306666702
scalar Scenario2_SlowSpeed.node[141].nic.phy80211p 	ncollisions 	4436
scalar Scenario2_SlowSpeed.node[141].nic.mac1609_4 	ReceivedUnicastPackets 	0
scalar Scenario2_SlowSpeed.node[141].nic.mac1609_4 	ReceivedBroadcasts 	80665
scalar Scenario2_SlowSpeed.node[141].nic.mac1609_4 	SentPackets 	451
scalar Scenario2_SlowSpeed.node[141].nic.mac1609_4 	SNIRLostPackets 	9703
scalar Scenario2_SlowSpeed.node[141].nic.mac1609_4 	RXTXLostPackets 	67
scalar Scenario2_SlowSpeed.node[141].nic.mac1609_4 	TotalLostPackets 	9770
scalar Scenario2_SlowSpeed.node[141].nic.mac1609_4 	DroppedPacketsInMac 	0
scalar Scenario2_SlowSpeed.node[141].nic.mac1609_4 	TooLittleTime 	0
scalar Scenario2_SlowSpeed.node[141].nic.mac1609_4 	TimesIntoBackoff 	606
scalar Scenario2_SlowSpeed.node[141].nic.mac1609_4 	SlotsBackoff 	925
scalar Scenario2_SlowSpeed.node[141].nic.mac1609_4 	NumInternalContention 	0
scalar Scenario2_SlowSpeed.node[141].nic.mac1609_4 	totalBusyTime 	8.92260868259
scalar Scenario2_SlowSpeed.node[141].veinsmobility 	startTime 	15
scalar Scenario2_SlowSpeed.node[141].veinsmobility 	totalTime 	45
scalar Scenario2_SlowSpeed.node[141].veinsmobility 	stopTime 	60
scalar Scenario2_SlowSpeed.node[141].veinsmobility 	minSpeed 	0
scalar Scenario2_SlowSpeed.node[141].veinsmobility 	maxSpeed 	1.9491384638796
scalar Scenario2_SlowSpeed.node[141].veinsmobility 	totalDistance 	27.309252089337
scalar Scenario2_SlowSpeed.node[141].veinsmobility 	totalCO2Emission 	47.271451431378
scalar Scenario2_SlowSpeed.node[142].appl 	generatedWSMs 	1
scalar Scenario2_SlowSpeed.node[142].appl 	receivedWSMs 	165
scalar Scenario2_SlowSpeed.node[142].appl 	generatedBSMs 	450
scalar Scenario2_SlowSpeed.node[142].appl 	receivedBSMs 	78446
scalar Scenario2_SlowSpeed.node[142].appl 	generatedWSAs 	0
scalar Scenario2_SlowSpeed.node[142].appl 	receivedWSAs 	0
scalar Scenario2_SlowSpeed.node[142].appl 	delayWSM 	0.000240219375
scalar Scenario2_SlowSpeed.node[142].appl 	Dist_Propa 	30.992785712415
scalar Scenario2_SlowSpeed.node[142].nic.phy80211p 	busyTime 	0.20225706666699
scalar Scenario2_SlowSpeed.node[142].nic.phy80211p 	ncollisions 	3916
scalar Scenario2_SlowSpeed.node[142].nic.mac1609_4 	ReceivedUnicastPackets 	0
scalar Scenario2_SlowSpeed.node[142].nic.mac1609_4 	ReceivedBroadcasts 	78611
scalar Scenario2_SlowSpeed.node[142].nic.mac1609_4 	SentPackets 	451
scalar Scenario2_SlowSpeed.node[142].nic.mac1609_4 	SNIRLostPackets 	8653
scalar Scenario2_SlowSpeed.node[142].nic.mac1609_4 	RXTXLostPackets 	0
scalar Scenario2_SlowSpeed.node[142].nic.mac1609_4 	TotalLostPackets 	8653
scalar Scenario2_SlowSpeed.node[142].nic.mac1609_4 	DroppedPacketsInMac 	0
scalar Scenario2_SlowSpeed.node[142].nic.mac1609_4 	TooLittleTime 	0
scalar Scenario2_SlowSpeed.node[142].nic.mac1609_4 	TimesIntoBackoff 	452
scalar Scenario2_SlowSpeed.node[142].nic.mac1609_4 	SlotsBackoff 	661
scalar Scenario2_SlowSpeed.node[142].nic.mac1609_4 	NumInternalContention 	0
scalar Scenario2_SlowSpeed.node[142].nic.mac1609_4 	totalBusyTime 	8.653717411142
scalar Scenario2_SlowSpeed.node[142].veinsmobility 	startTime 	15
scalar Scenario2_SlowSpeed.node[142].veinsmobility 	totalTime 	45
scalar Scenario2_SlowSpeed.node[142].veinsmobility 	stopTime 	60
scalar Scenario2_SlowSpeed.node[142].veinsmobility 	minSpeed 	0
scalar Scenario2_SlowSpeed.node[142].veinsmobility 	maxSpeed 	7.9308313102934
scalar Scenario2_SlowSpeed.node[142].veinsmobility 	totalDistance 	190.47800645151
scalar Scenario2_SlowSpeed.node[142].veinsmobility 	totalCO2Emission 	66.574369351644
scalar Scenario2_SlowSpeed.node[5].appl 	generatedWSMs 	1
scalar Scenario2_SlowSpeed.node[5].appl 	receivedWSMs 	164
scalar Scenario2_SlowSpeed.node[5].appl 	generatedBSMs 	590
scalar Scenario2_SlowSpeed.node[5].appl 	receivedBSMs 	90990
scalar Scenario2_SlowSpeed.node[5].appl 	generatedWSAs 	0
scalar Scenario2_SlowSpeed.node[5].appl 	receivedWSAs 	0
scalar Scenario2_SlowSpeed.node[5].appl 	delayWSM 	0.000240008607
scalar Scenario2_SlowSpeed.node[5].appl 	Dist_Propa 	294.11036298728
scalar Scenario2_SlowSpeed.node[5].nic.phy80211p 	busyTime 	0.17861477966134
scalar Scenario2_SlowSpeed.node[5].nic.phy80211p 	ncollisions 	4352
scalar Scenario2_SlowSpeed.node[5].nic.mac1609_4 	ReceivedUnicastPackets 	0
scalar Scenario2_SlowSpeed.node[5].nic.mac1609_4 	ReceivedBroadcasts 	91154
scalar Scenario2_SlowSpeed.node[5].nic.mac1609_4 	SentPackets 	591
scalar Scenario2_SlowSpeed.node[5].nic.mac1609_4 	SNIRLostPackets 	9921
scalar Scenario2_SlowSpeed.node[5].nic.mac1609_4 	RXTXLostPackets 	0
scalar Scenario2_SlowSpeed.node[5].nic.mac1609_4 	TotalLostPackets 	9921
scalar Scenario2_SlowSpeed.node[5].nic.mac1609_4 	DroppedPacketsInMac 	0
scalar Scenario2_SlowSpeed.node[5].nic.mac1609_4 	TooLittleTime 	0
scalar Scenario2_SlowSpeed.node[5].nic.mac1609_4 	TimesIntoBackoff 	1097
scalar Scenario2_SlowSpeed.node[5].nic.mac1609_4 	SlotsBackoff 	1685
scalar Scenario2_SlowSpeed.node[5].nic.mac1609_4 	NumInternalContention 	0
scalar Scenario2_SlowSpeed.node[5].nic.mac1609_4 	totalBusyTime 	10.018514181801
scalar Scenario2_SlowSpeed.node[5].veinsmobility 	startTime 	1
scalar Scenario2_SlowSpeed.node[5].veinsmobility 	totalTime 	59
scalar Scenario2_SlowSpeed.node[5].veinsmobility 	stopTime 	60
scalar Scenario2_SlowSpeed.node[5].veinsmobility 	minSpeed 	0
scalar Scenario2_SlowSpeed.node[5].veinsmobility 	maxSpeed 	7.9973915574094
scalar Scenario2_SlowSpeed.node[5].veinsmobility 	totalDistance 	323.59299026291
scalar Scenario2_SlowSpeed.node[5].veinsmobility 	totalCO2Emission 	85.259917822717
scalar Scenario2_SlowSpeed.node[143].appl 	generatedWSMs 	1
scalar Scenario2_SlowSpeed.node[143].appl 	receivedWSMs 	172
scalar Scenario2_SlowSpeed.node[143].appl 	generatedBSMs 	450
scalar Scenario2_SlowSpeed.node[143].appl 	receivedBSMs 	80199
scalar Scenario2_SlowSpeed.node[143].appl 	generatedWSAs 	0
scalar Scenario2_SlowSpeed.node[143].appl 	receivedWSAs 	0
scalar Scenario2_SlowSpeed.node[143].appl 	delayWSM 	0.000239957821
scalar Scenario2_SlowSpeed.node[143].appl 	Dist_Propa 	96.936475757787
scalar Scenario2_SlowSpeed.node[143].nic.phy80211p 	busyTime 	0.20877493333368
scalar Scenario2_SlowSpeed.node[143].nic.phy80211p 	ncollisions 	4386
scalar Scenario2_SlowSpeed.node[143].nic.mac1609_4 	ReceivedUnicastPackets 	0
scalar Scenario2_SlowSpeed.node[143].nic.mac1609_4 	ReceivedBroadcasts 	80371
scalar Scenario2_SlowSpeed.node[143].nic.mac1609_4 	SentPackets 	451
scalar Scenario2_SlowSpeed.node[143].nic.mac1609_4 	SNIRLostPackets 	9680
scalar Scenario2_SlowSpeed.node[143].nic.mac1609_4 	RXTXLostPackets 	0
scalar Scenario2_SlowSpeed.node[143].nic.mac1609_4 	TotalLostPackets 	9680
scalar Scenario2_SlowSpeed.node[143].nic.mac1609_4 	DroppedPacketsInMac 	0
scalar Scenario2_SlowSpeed.node[143].nic.mac1609_4 	TooLittleTime 	0
scalar Scenario2_SlowSpeed.node[143].nic.mac1609_4 	TimesIntoBackoff 	652
scalar Scenario2_SlowSpeed.node[143].nic.mac1609_4 	SlotsBackoff 	1045
scalar Scenario2_SlowSpeed.node[143].nic.mac1609_4 	NumInternalContention 	0
scalar Scenario2_SlowSpeed.node[143].nic.mac1609_4 	totalBusyTime 	8.888075388743
scalar Scenario2_SlowSpeed.node[143].veinsmobility 	startTime 	15
scalar Scenario2_SlowSpeed.node[143].veinsmobility 	totalTime 	45
scalar Scenario2_SlowSpeed.node[143].veinsmobility 	stopTime 	60
scalar Scenario2_SlowSpeed.node[143].veinsmobility 	minSpeed 	0
scalar Scenario2_SlowSpeed.node[143].veinsmobility 	maxSpeed 	2.1746889111157
scalar Scenario2_SlowSpeed.node[143].veinsmobility 	totalDistance 	32.830371522545
scalar Scenario2_SlowSpeed.node[143].veinsmobility 	totalCO2Emission 	48.744099937836
scalar Scenario2_SlowSpeed.node[144].appl 	generatedWSMs 	1
scalar Scenario2_SlowSpeed.node[144].appl 	receivedWSMs 	152
scalar Scenario2_SlowSpeed.node[144].appl 	generatedBSMs 	450
scalar Scenario2_SlowSpeed.node[144].appl 	receivedBSMs 	62396
scalar Scenario2_SlowSpeed.node[144].appl 	generatedWSAs 	0
scalar Scenario2_SlowSpeed.node[144].appl 	receivedWSAs 	0
scalar Scenario2_SlowSpeed.node[144].appl 	delayWSM 	0.000239975208
scalar Scenario2_SlowSpeed.node[144].appl 	Dist_Propa 	563.75036602009
scalar Scenario2_SlowSpeed.node[144].nic.phy80211p 	busyTime 	0.15126862222239
scalar Scenario2_SlowSpeed.node[144].nic.phy80211p 	ncollisions 	1137
scalar Scenario2_SlowSpeed.node[144].nic.mac1609_4 	ReceivedUnicastPackets 	0
scalar Scenario2_SlowSpeed.node[144].nic.mac1609_4 	ReceivedBroadcasts 	62548
scalar Scenario2_SlowSpeed.node[144].nic.mac1609_4 	SentPackets 	451
scalar Scenario2_SlowSpeed.node[144].nic.mac1609_4 	SNIRLostPackets 	2682
scalar Scenario2_SlowSpeed.node[144].nic.mac1609_4 	RXTXLostPackets 	2
scalar Scenario2_SlowSpeed.node[144].nic.mac1609_4 	TotalLostPackets 	2684
scalar Scenario2_SlowSpeed.node[144].nic.mac1609_4 	DroppedPacketsInMac 	0
scalar Scenario2_SlowSpeed.node[144].nic.mac1609_4 	TooLittleTime 	0
scalar Scenario2_SlowSpeed.node[144].nic.mac1609_4 	TimesIntoBackoff 	453
scalar Scenario2_SlowSpeed.node[144].nic.mac1609_4 	SlotsBackoff 	644
scalar Scenario2_SlowSpeed.node[144].nic.mac1609_4 	NumInternalContention 	0
scalar Scenario2_SlowSpeed.node[144].nic.mac1609_4 	totalBusyTime 	6.691680634728
[...]
scalar Scenario2_SlowSpeed.node[257].appl 	delayWSM 	25.096615501644
scalar Scenario2_SlowSpeed.node[257].appl 	Dist_Propa 	141.52397433798
scalar Scenario2_SlowSpeed.node[257].nic.phy80211p 	busyTime 	0.035892000000001
scalar Scenario2_SlowSpeed.node[257].nic.phy80211p 	ncollisions 	25
scalar Scenario2_SlowSpeed.node[257].nic.mac1609_4 	ReceivedUnicastPackets 	0
scalar Scenario2_SlowSpeed.node[257].nic.mac1609_4 	ReceivedBroadcasts 	1352
scalar Scenario2_SlowSpeed.node[257].nic.mac1609_4 	SentPackets 	41
scalar Scenario2_SlowSpeed.node[257].nic.mac1609_4 	SNIRLostPackets 	25
scalar Scenario2_SlowSpeed.node[257].nic.mac1609_4 	RXTXLostPackets 	4
scalar Scenario2_SlowSpeed.node[257].nic.mac1609_4 	TotalLostPackets 	29
scalar Scenario2_SlowSpeed.node[257].nic.mac1609_4 	DroppedPacketsInMac 	0
scalar Scenario2_SlowSpeed.node[257].nic.mac1609_4 	TooLittleTime 	0
scalar Scenario2_SlowSpeed.node[257].nic.mac1609_4 	TimesIntoBackoff 	48
scalar Scenario2_SlowSpeed.node[257].nic.mac1609_4 	SlotsBackoff 	76
scalar Scenario2_SlowSpeed.node[257].nic.mac1609_4 	NumInternalContention 	0
scalar Scenario2_SlowSpeed.node[257].nic.mac1609_4 	totalBusyTime 	0.147897
scalar Scenario2_SlowSpeed.node[257].veinsmobility 	startTime 	56
scalar Scenario2_SlowSpeed.node[257].veinsmobility 	totalTime 	4
scalar Scenario2_SlowSpeed.node[257].veinsmobility 	stopTime 	60
scalar Scenario2_SlowSpeed.node[257].veinsmobility 	minSpeed 	2.1940109600276
scalar Scenario2_SlowSpeed.node[257].veinsmobility 	maxSpeed 	7.9843347878265
scalar Scenario2_SlowSpeed.node[257].veinsmobility 	totalDistance 	16.969794114381
scalar Scenario2_SlowSpeed.node[257].veinsmobility 	totalCO2Emission 	12.730751709568
scalar Scenario2_SlowSpeed.node[260].appl 	generatedWSMs 	0
scalar Scenario2_SlowSpeed.node[260].appl 	receivedWSMs 	2
scalar Scenario2_SlowSpeed.node[260].appl 	generatedBSMs 	20
scalar Scenario2_SlowSpeed.node[260].appl 	receivedBSMs 	668
scalar Scenario2_SlowSpeed.node[260].appl 	generatedWSAs 	0
scalar Scenario2_SlowSpeed.node[260].appl 	receivedWSAs 	0
scalar Scenario2_SlowSpeed.node[260].appl 	delayWSM 	27.165494632674
scalar Scenario2_SlowSpeed.node[260].appl 	Dist_Propa 	398.05108278041
scalar Scenario2_SlowSpeed.node[260].nic.phy80211p 	busyTime 	0.035592
scalar Scenario2_SlowSpeed.node[260].nic.phy80211p 	ncollisions 	10
scalar Scenario2_SlowSpeed.node[260].nic.mac1609_4 	ReceivedUnicastPackets 	0
scalar Scenario2_SlowSpeed.node[260].nic.mac1609_4 	ReceivedBroadcasts 	670
scalar Scenario2_SlowSpeed.node[260].nic.mac1609_4 	SentPackets 	20
scalar Scenario2_SlowSpeed.node[260].nic.mac1609_4 	SNIRLostPackets 	11
scalar Scenario2_SlowSpeed.node[260].nic.mac1609_4 	RXTXLostPackets 	0
scalar Scenario2_SlowSpeed.node[260].nic.mac1609_4 	TotalLostPackets 	11
scalar Scenario2_SlowSpeed.node[260].nic.mac1609_4 	DroppedPacketsInMac 	0
scalar Scenario2_SlowSpeed.node[260].nic.mac1609_4 	TooLittleTime 	0
scalar Scenario2_SlowSpeed.node[260].nic.mac1609_4 	TimesIntoBackoff 	20
scalar Scenario2_SlowSpeed.node[260].nic.mac1609_4 	SlotsBackoff 	28
scalar Scenario2_SlowSpeed.node[260].nic.mac1609_4 	NumInternalContention 	0
scalar Scenario2_SlowSpeed.node[260].nic.mac1609_4 	totalBusyTime 	0.073076
scalar Scenario2_SlowSpeed.node[260].veinsmobility 	startTime 	58
scalar Scenario2_SlowSpeed.node[260].veinsmobility 	totalTime 	2
scalar Scenario2_SlowSpeed.node[260].veinsmobility 	stopTime 	60
scalar Scenario2_SlowSpeed.node[260].veinsmobility 	minSpeed 	2.6719666774688
scalar Scenario2_SlowSpeed.node[260].veinsmobility 	maxSpeed 	4.5947360364977
scalar Scenario2_SlowSpeed.node[260].veinsmobility 	totalDistance 	5.4853506782262
scalar Scenario2_SlowSpeed.node[260].veinsmobility 	totalCO2Emission 	3.4697538803579
scalar Scenario2_SlowSpeed.node[124].appl 	generatedWSMs 	1
scalar Scenario2_SlowSpeed.node[124].appl 	receivedWSMs 	77
scalar Scenario2_SlowSpeed.node[124].appl 	generatedBSMs 	480
scalar Scenario2_SlowSpeed.node[124].appl 	receivedBSMs 	45068
scalar Scenario2_SlowSpeed.node[124].appl 	generatedWSAs 	0
scalar Scenario2_SlowSpeed.node[124].appl 	receivedWSAs 	0
scalar Scenario2_SlowSpeed.node[124].appl 	delayWSM 	2.011342156152
scalar Scenario2_SlowSpeed.node[124].appl 	Dist_Propa 	610.01895573754
scalar Scenario2_SlowSpeed.node[124].nic.phy80211p 	busyTime 	0.10892033333339
scalar Scenario2_SlowSpeed.node[124].nic.phy80211p 	ncollisions 	3150
scalar Scenario2_SlowSpeed.node[124].nic.mac1609_4 	ReceivedUnicastPackets 	0
scalar Scenario2_SlowSpeed.node[124].nic.mac1609_4 	ReceivedBroadcasts 	45145
scalar Scenario2_SlowSpeed.node[124].nic.mac1609_4 	SentPackets 	481
scalar Scenario2_SlowSpeed.node[124].nic.mac1609_4 	SNIRLostPackets 	4992
scalar Scenario2_SlowSpeed.node[124].nic.mac1609_4 	RXTXLostPackets 	100
scalar Scenario2_SlowSpeed.node[124].nic.mac1609_4 	TotalLostPackets 	5092
scalar Scenario2_SlowSpeed.node[124].nic.mac1609_4 	DroppedPacketsInMac 	0
scalar Scenario2_SlowSpeed.node[124].nic.mac1609_4 	TooLittleTime 	0
scalar Scenario2_SlowSpeed.node[124].nic.mac1609_4 	TimesIntoBackoff 	481
scalar Scenario2_SlowSpeed.node[124].nic.mac1609_4 	SlotsBackoff 	740
scalar Scenario2_SlowSpeed.node[124].nic.mac1609_4 	NumInternalContention 	0
scalar Scenario2_SlowSpeed.node[124].nic.mac1609_4 	totalBusyTime 	5.086369
scalar Scenario2_SlowSpeed.node[124].veinsmobility 	startTime 	12
scalar Scenario2_SlowSpeed.node[124].veinsmobility 	totalTime 	48
scalar Scenario2_SlowSpeed.node[124].veinsmobility 	stopTime 	60
scalar Scenario2_SlowSpeed.node[124].veinsmobility 	minSpeed 	3.5142798499626
scalar Scenario2_SlowSpeed.node[124].veinsmobility 	maxSpeed 	7.9931438549119
scalar Scenario2_SlowSpeed.node[124].veinsmobility 	totalDistance 	370.97955073609
scalar Scenario2_SlowSpeed.node[124].veinsmobility 	totalCO2Emission 	79.169155370624
scalar Scenario2_SlowSpeed.node[263].appl 	generatedWSMs 	0
scalar Scenario2_SlowSpeed.node[263].appl 	receivedWSMs 	0
scalar Scenario2_SlowSpeed.node[263].appl 	generatedBSMs 	0
scalar Scenario2_SlowSpeed.node[263].appl 	receivedBSMs 	0
scalar Scenario2_SlowSpeed.node[263].appl 	generatedWSAs 	0
scalar Scenario2_SlowSpeed.node[263].appl 	receivedWSAs 	0
scalar Scenario2_SlowSpeed.node[263].appl 	delayWSM 	-1
scalar Scenario2_SlowSpeed.node[263].appl 	Dist_Propa 	-1
scalar Scenario2_SlowSpeed.node[263].nic.phy80211p 	busyTime 	-nan
scalar Scenario2_SlowSpeed.node[263].nic.phy80211p 	ncollisions 	0
scalar Scenario2_SlowSpeed.node[263].nic.mac1609_4 	ReceivedUnicastPackets 	0
scalar Scenario2_SlowSpeed.node[263].nic.mac1609_4 	ReceivedBroadcasts 	0
scalar Scenario2_SlowSpeed.node[263].nic.mac1609_4 	SentPackets 	0
scalar Scenario2_SlowSpeed.node[263].nic.mac1609_4 	SNIRLostPackets 	0
scalar Scenario2_SlowSpeed.node[263].nic.mac1609_4 	RXTXLostPackets 	0
scalar Scenario2_SlowSpeed.node[263].nic.mac1609_4 	TotalLostPackets 	0
scalar Scenario2_SlowSpeed.node[263].nic.mac1609_4 	DroppedPacketsInMac 	0
scalar Scenario2_SlowSpeed.node[263].nic.mac1609_4 	TooLittleTime 	0
scalar Scenario2_SlowSpeed.node[263].nic.mac1609_4 	TimesIntoBackoff 	0
scalar Scenario2_SlowSpeed.node[263].nic.mac1609_4 	SlotsBackoff 	0
scalar Scenario2_SlowSpeed.node[263].nic.mac1609_4 	NumInternalContention 	0
scalar Scenario2_SlowSpeed.node[263].nic.mac1609_4 	totalBusyTime 	0
scalar Scenario2_SlowSpeed.node[263].veinsmobility 	startTime 	60
scalar Scenario2_SlowSpeed.node[263].veinsmobility 	totalTime 	0
scalar Scenario2_SlowSpeed.node[263].veinsmobility 	stopTime 	60
scalar Scenario2_SlowSpeed.node[263].veinsmobility 	totalDistance 	0
scalar Scenario2_SlowSpeed.node[263].veinsmobility 	totalCO2Emission 	0
scalar Scenario2_SlowSpeed.node[140].appl 	generatedWSMs 	1
scalar Scenario2_SlowSpeed.node[140].appl 	receivedWSMs 	70
scalar Scenario2_SlowSpeed.node[140].appl 	generatedBSMs 	460
scalar Scenario2_SlowSpeed.node[140].appl 	receivedBSMs 	41843
scalar Scenario2_SlowSpeed.node[140].appl 	generatedWSAs 	0
scalar Scenario2_SlowSpeed.node[140].appl 	receivedWSAs 	0
scalar Scenario2_SlowSpeed.node[140].appl 	delayWSM 	2.011342205185
scalar Scenario2_SlowSpeed.node[140].appl 	Dist_Propa 	624.61834300114
scalar Scenario2_SlowSpeed.node[140].nic.phy80211p 	busyTime 	0.10556939130438
scalar Scenario2_SlowSpeed.node[140].nic.phy80211p 	ncollisions 	2941
scalar Scenario2_SlowSpeed.node[140].nic.mac1609_4 	ReceivedUnicastPackets 	0
scalar Scenario2_SlowSpeed.node[140].nic.mac1609_4 	ReceivedBroadcasts 	41913
scalar Scenario2_SlowSpeed.node[140].nic.mac1609_4 	SentPackets 	461
scalar Scenario2_SlowSpeed.node[140].nic.mac1609_4 	SNIRLostPackets 	4662
scalar Scenario2_SlowSpeed.node[140].nic.mac1609_4 	RXTXLostPackets 	0
scalar Scenario2_SlowSpeed.node[140].nic.mac1609_4 	TotalLostPackets 	4662
scalar Scenario2_SlowSpeed.node[140].nic.mac1609_4 	DroppedPacketsInMac 	0
scalar Scenario2_SlowSpeed.node[140].nic.mac1609_4 	TooLittleTime 	0
scalar Scenario2_SlowSpeed.node[140].nic.mac1609_4 	TimesIntoBackoff 	461
scalar Scenario2_SlowSpeed.node[140].nic.mac1609_4 	SlotsBackoff 	761
scalar Scenario2_SlowSpeed.node[140].nic.mac1609_4 	NumInternalContention 	0
scalar Scenario2_SlowSpeed.node[140].nic.mac1609_4 	totalBusyTime 	4.724997
scalar Scenario2_SlowSpeed.node[140].veinsmobility 	startTime 	14
scalar Scenario2_SlowSpeed.node[140].veinsmobility 	totalTime 	46
scalar Scenario2_SlowSpeed.node[140].veinsmobility 	stopTime 	60
scalar Scenario2_SlowSpeed.node[140].veinsmobility 	minSpeed 	3.6742379713512
scalar Scenario2_SlowSpeed.node[140].veinsmobility 	maxSpeed 	7.9989194545639
scalar Scenario2_SlowSpeed.node[140].veinsmobility 	totalDistance 	355.82360141942
scalar Scenario2_SlowSpeed.node[140].veinsmobility 	totalCO2Emission 	76.094373444042
scalar Scenario2_SlowSpeed.node[146].appl 	generatedWSMs 	1
scalar Scenario2_SlowSpeed.node[146].appl 	receivedWSMs 	58
scalar Scenario2_SlowSpeed.node[146].appl 	generatedBSMs 	450
scalar Scenario2_SlowSpeed.node[146].appl 	receivedBSMs 	39139
scalar Scenario2_SlowSpeed.node[146].appl 	generatedWSAs 	0
scalar Scenario2_SlowSpeed.node[146].appl 	receivedWSAs 	0
scalar Scenario2_SlowSpeed.node[146].appl 	delayWSM 	2.01134225366
scalar Scenario2_SlowSpeed.node[146].appl 	Dist_Propa 	637.57582622658
scalar Scenario2_SlowSpeed.node[146].nic.phy80211p 	busyTime 	0.10075573333334
scalar Scenario2_SlowSpeed.node[146].nic.phy80211p 	ncollisions 	2723
scalar Scenario2_SlowSpeed.node[146].nic.mac1609_4 	ReceivedUnicastPackets 	0
scalar Scenario2_SlowSpeed.node[146].nic.mac1609_4 	ReceivedBroadcasts 	39197
scalar Scenario2_SlowSpeed.node[146].nic.mac1609_4 	SentPackets 	451
scalar Scenario2_SlowSpeed.node[146].nic.mac1609_4 	SNIRLostPackets 	4301
scalar Scenario2_SlowSpeed.node[146].nic.mac1609_4 	RXTXLostPackets 	0
scalar Scenario2_SlowSpeed.node[146].nic.mac1609_4 	TotalLostPackets 	4301
scalar Scenario2_SlowSpeed.node[146].nic.mac1609_4 	DroppedPacketsInMac 	0
scalar Scenario2_SlowSpeed.node[146].nic.mac1609_4 	TooLittleTime 	0
scalar Scenario2_SlowSpeed.node[146].nic.mac1609_4 	TimesIntoBackoff 	451
scalar Scenario2_SlowSpeed.node[146].nic.mac1609_4 	SlotsBackoff 	669
scalar Scenario2_SlowSpeed.node[146].nic.mac1609_4 	NumInternalContention 	0
scalar Scenario2_SlowSpeed.node[146].nic.mac1609_4 	totalBusyTime 	4.416891
scalar Scenario2_SlowSpeed.node[146].veinsmobility 	startTime 	15
scalar Scenario2_SlowSpeed.node[146].veinsmobility 	totalTime 	45
scalar Scenario2_SlowSpeed.node[146].veinsmobility 	stopTime 	60
scalar Scenario2_SlowSpeed.node[146].veinsmobility 	minSpeed 	2.1613891165237
scalar Scenario2_SlowSpeed.node[146].veinsmobility 	maxSpeed 	7.9981589262839
scalar Scenario2_SlowSpeed.node[146].veinsmobility 	totalDistance 	341.80422176181
scalar Scenario2_SlowSpeed.node[146].veinsmobility 	totalCO2Emission 	75.68100848143
scalar Scenario2_SlowSpeed.node[156].appl 	generatedWSMs 	1
scalar Scenario2_SlowSpeed.node[156].appl 	receivedWSMs 	46
scalar Scenario2_SlowSpeed.node[156].appl 	generatedBSMs 	430
scalar Scenario2_SlowSpeed.node[156].appl 	receivedBSMs 	36505
scalar Scenario2_SlowSpeed.node[156].appl 	generatedWSAs 	0
scalar Scenario2_SlowSpeed.node[156].appl 	receivedWSAs 	0
scalar Scenario2_SlowSpeed.node[156].appl 	delayWSM 	2.037160934455
scalar Scenario2_SlowSpeed.node[156].appl 	Dist_Propa 	174.36718134359
scalar Scenario2_SlowSpeed.node[156].nic.phy80211p 	busyTime 	0.098309581395335
scalar Scenario2_SlowSpeed.node[156].nic.phy80211p 	ncollisions 	2560
scalar Scenario2_SlowSpeed.node[156].nic.mac1609_4 	ReceivedUnicastPackets 	0
scalar Scenario2_SlowSpeed.node[156].nic.mac1609_4 	ReceivedBroadcasts 	36551
scalar Scenario2_SlowSpeed.node[156].nic.mac1609_4 	SentPackets 	431
scalar Scenario2_SlowSpeed.node[156].nic.mac1609_4 	SNIRLostPackets 	4014
scalar Scenario2_SlowSpeed.node[156].nic.mac1609_4 	RXTXLostPackets 	0
scalar Scenario2_SlowSpeed.node[156].nic.mac1609_4 	TotalLostPackets 	4014
scalar Scenario2_SlowSpeed.node[156].nic.mac1609_4 	DroppedPacketsInMac 	0
scalar Scenario2_SlowSpeed.node[156].nic.mac1609_4 	TooLittleTime 	0
scalar Scenario2_SlowSpeed.node[156].nic.mac1609_4 	TimesIntoBackoff 	431
scalar Scenario2_SlowSpeed.node[156].nic.mac1609_4 	SlotsBackoff 	634
scalar Scenario2_SlowSpeed.node[156].nic.mac1609_4 	NumInternalContention 	0
scalar Scenario2_SlowSpeed.node[156].nic.mac1609_4 	totalBusyTime 	4.121177254779
scalar Scenario2_SlowSpeed.node[156].veinsmobility 	startTime 	17
scalar Scenario2_SlowSpeed.node[156].veinsmobility 	totalTime 	43
scalar Scenario2_SlowSpeed.node[156].veinsmobility 	stopTime 	60
scalar Scenario2_SlowSpeed.node[156].veinsmobility 	minSpeed 	2.6234599548635
scalar Scenario2_SlowSpeed.node[156].veinsmobility 	maxSpeed 	7.99290909976
scalar Scenario2_SlowSpeed.node[156].veinsmobility 	totalDistance 	328.68115821928
scalar Scenario2_SlowSpeed.node[156].veinsmobility 	totalCO2Emission 	72.447356552333
scalar Scenario2_SlowSpeed.node[163].appl 	generatedWSMs 	1
scalar Scenario2_SlowSpeed.node[163].appl 	receivedWSMs 	41
scalar Scenario2_SlowSpeed.node[163].appl 	generatedBSMs 	410
scalar Scenario2_SlowSpeed.node[163].appl 	receivedBSMs 	33535
scalar Scenario2_SlowSpeed.node[163].appl 	generatedWSAs 	0
scalar Scenario2_SlowSpeed.node[163].appl 	receivedWSAs 	0
scalar Scenario2_SlowSpeed.node[163].appl 	delayWSM 	2.037160983762
scalar Scenario2_SlowSpeed.node[163].appl 	Dist_Propa 	190.58940824531
scalar Scenario2_SlowSpeed.node[163].nic.phy80211p 	busyTime 	0.094742634146312
scalar Scenario2_SlowSpeed.node[163].nic.phy80211p 	ncollisions 	2401
scalar Scenario2_SlowSpeed.node[163].nic.mac1609_4 	ReceivedUnicastPackets 	0
scalar Scenario2_SlowSpeed.node[163].nic.mac1609_4 	ReceivedBroadcasts 	33576
scalar Scenario2_SlowSpeed.node[163].nic.mac1609_4 	SentPackets 	411
scalar Scenario2_SlowSpeed.node[163].nic.mac1609_4 	SNIRLostPackets 	3707
scalar Scenario2_SlowSpeed.node[163].nic.mac1609_4 	RXTXLostPackets 	0
scalar Scenario2_SlowSpeed.node[163].nic.mac1609_4 	TotalLostPackets 	3707
scalar Scenario2_SlowSpeed.node[163].nic.mac1609_4 	DroppedPacketsInMac 	0
scalar Scenario2_SlowSpeed.node[163].nic.mac1609_4 	TooLittleTime 	0
scalar Scenario2_SlowSpeed.node[163].nic.mac1609_4 	TimesIntoBackoff 	411
scalar Scenario2_SlowSpeed.node[163].nic.mac1609_4 	SlotsBackoff 	596
scalar Scenario2_SlowSpeed.node[163].nic.mac1609_4 	NumInternalContention 	0
scalar Scenario2_SlowSpeed.node[163].nic.mac1609_4 	totalBusyTime 	3.791675
scalar Scenario2_SlowSpeed.node[163].veinsmobility 	startTime 	19
scalar Scenario2_SlowSpeed.node[163].veinsmobility 	totalTime 	41
scalar Scenario2_SlowSpeed.node[163].veinsmobility 	stopTime 	60
scalar Scenario2_SlowSpeed.node[163].veinsmobility 	minSpeed 	2.9961562340673
scalar Scenario2_SlowSpeed.node[163].veinsmobility 	maxSpeed 	7.9797279175348
scalar Scenario2_SlowSpeed.node[163].veinsmobility 	totalDistance 	313.69993082121
scalar Scenario2_SlowSpeed.node[163].veinsmobility 	totalCO2Emission 	68.902201023075
scalar Scenario2_SlowSpeed.node[173].appl 	generatedWSMs 	1
scalar Scenario2_SlowSpeed.node[173].appl 	receivedWSMs 	41
scalar Scenario2_SlowSpeed.node[173].appl 	generatedBSMs 	390
scalar Scenario2_SlowSpeed.node[173].appl 	receivedBSMs 	30912
scalar Scenario2_SlowSpeed.node[173].appl 	generatedWSAs 	0
scalar Scenario2_SlowSpeed.node[173].appl 	receivedWSAs 	0
scalar Scenario2_SlowSpeed.node[173].appl 	delayWSM 	2.037161029666
scalar Scenario2_SlowSpeed.node[173].appl 	Dist_Propa 	203.89021453882
scalar Scenario2_SlowSpeed.node[173].nic.phy80211p 	busyTime 	0.091764102564081
scalar Scenario2_SlowSpeed.node[173].nic.phy80211p 	ncollisions 	2190
scalar Scenario2_SlowSpeed.node[173].nic.mac1609_4 	ReceivedUnicastPackets 	0
scalar Scenario2_SlowSpeed.node[173].nic.mac1609_4 	ReceivedBroadcasts 	30953
scalar Scenario2_SlowSpeed.node[173].nic.mac1609_4 	SentPackets 	391
scalar Scenario2_SlowSpeed.node[173].nic.mac1609_4 	SNIRLostPackets 	3396
scalar Scenario2_SlowSpeed.node[173].nic.mac1609_4 	RXTXLostPackets 	0
scalar Scenario2_SlowSpeed.node[173].nic.mac1609_4 	TotalLostPackets 	3396
scalar Scenario2_SlowSpeed.node[173].nic.mac1609_4 	DroppedPacketsInMac 	0
scalar Scenario2_SlowSpeed.node[173].nic.mac1609_4 	TooLittleTime 	0
scalar Scenario2_SlowSpeed.node[173].nic.mac1609_4 	TimesIntoBackoff 	391
scalar Scenario2_SlowSpeed.node[173].nic.mac1609_4 	SlotsBackoff 	596
scalar Scenario2_SlowSpeed.node[173].nic.mac1609_4 	NumInternalContention 	0
scalar Scenario2_SlowSpeed.node[173].nic.mac1609_4 	totalBusyTime 	3.494455
scalar Scenario2_SlowSpeed.node[173].veinsmobility 	startTime 	21
scalar Scenario2_SlowSpeed.node[173].veinsmobility 	totalTime 	39
scalar Scenario2_SlowSpeed.node[173].veinsmobility 	stopTime 	60
scalar Scenario2_SlowSpeed.node[173].veinsmobility 	minSpeed 	3.5498721347115
scalar Scenario2_SlowSpeed.node[173].veinsmobility 	maxSpeed 	7.9987463180046
scalar Scenario2_SlowSpeed.node[173].veinsmobility 	totalDistance 	299.6724920594
scalar Scenario2_SlowSpeed.node[173].veinsmobility 	totalCO2Emission 	65.29085281091
scalar Scenario2_SlowSpeed.node[185].appl 	generatedWSMs 	1
scalar Scenario2_SlowSpeed.node[185].appl 	receivedWSMs 	38
scalar Scenario2_SlowSpeed.node[185].appl 	generatedBSMs 	370
scalar Scenario2_SlowSpeed.node[185].appl 	receivedBSMs 	28123
scalar Scenario2_SlowSpeed.node[185].appl 	generatedWSAs 	0
scalar Scenario2_SlowSpeed.node[185].appl 	receivedWSAs 	0
scalar Scenario2_SlowSpeed.node[185].appl 	delayWSM 	2.037161077205
scalar Scenario2_SlowSpeed.node[185].appl 	Dist_Propa 	219.36463642237
scalar Scenario2_SlowSpeed.node[185].nic.phy80211p 	busyTime 	0.087339243243231
scalar Scenario2_SlowSpeed.node[185].nic.phy80211p 	ncollisions 	1832
scalar Scenario2_SlowSpeed.node[185].nic.mac1609_4 	ReceivedUnicastPackets 	0
scalar Scenario2_SlowSpeed.node[185].nic.mac1609_4 	ReceivedBroadcasts 	28161
scalar Scenario2_SlowSpeed.node[185].nic.mac1609_4 	SentPackets 	371
scalar Scenario2_SlowSpeed.node[185].nic.mac1609_4 	SNIRLostPackets 	2854
scalar Scenario2_SlowSpeed.node[185].nic.mac1609_4 	RXTXLostPackets 	0
scalar Scenario2_SlowSpeed.node[185].nic.mac1609_4 	TotalLostPackets 	2854
scalar Scenario2_SlowSpeed.node[185].nic.mac1609_4 	DroppedPacketsInMac 	0
scalar Scenario2_SlowSpeed.node[185].nic.mac1609_4 	TooLittleTime 	0
scalar Scenario2_SlowSpeed.node[185].nic.mac1609_4 	TimesIntoBackoff 	371
scalar Scenario2_SlowSpeed.node[185].nic.mac1609_4 	SlotsBackoff 	556
scalar Scenario2_SlowSpeed.node[185].nic.mac1609_4 	NumInternalContention 	0
scalar Scenario2_SlowSpeed.node[185].nic.mac1609_4 	totalBusyTime 	3.164920208711
scalar Scenario2_SlowSpeed.node[185].veinsmobility 	startTime 	23
scalar Scenario2_SlowSpeed.node[185].veinsmobility 	totalTime 	37
scalar Scenario2_SlowSpeed.node[185].veinsmobility 	stopTime 	60
scalar Scenario2_SlowSpeed.node[185].veinsmobility 	minSpeed 	4.0273957115979
scalar Scenario2_SlowSpeed.node[185].veinsmobility 	maxSpeed 	7.9996747244173
scalar Scenario2_SlowSpeed.node[185].veinsmobility 	totalDistance 	284.88252866724
scalar Scenario2_SlowSpeed.node[185].veinsmobility 	totalCO2Emission 	61.759848786299
