version 2
run WithoutChSw-WSA-TrAD-1-20180210-11:46:05-24946
attr configname WithoutChSw-WSA-TrAD
attr datetime 20180210-11:46:05
attr experiment WithoutChSw-WSA-TrAD
attr inifile omnetpp.ini
attr iterationvars $0=0.5s
attr iterationvarsf 0.5s-
attr measurement $0=0.5s
attr network Scenario2_SlowSpeed
attr processid 24946
attr repetition 0
attr replication #0
attr resultdir results
attr runnumber 1
attr seedset 1
param **.coreDebug false
param **.debug false
param *.**.nic.mac1609_4.bitrate 6Mbps
param *.**.nic.mac1609_4.txPower 20mW
param *.**.nic.mac1609_4.useServiceChannel false
param *.**.nic.phy80211p.analogueModels "xmldoc(\"config.xml\")"
param *.**.nic.phy80211p.antenna "xmldoc(\"antenna.xml\", \"/root/Antenna[@id='monopole']\")"
param *.**.nic.phy80211p.collectCollisionStatistics true
param *.**.nic.phy80211p.decider "xmldoc(\"config.xml\")"
param *.**.nic.phy80211p.sensitivity -89dBm
param *.**.nic.phy80211p.thermalNoise -110dBm
param *.**.nic.phy80211p.usePropagationDelay true
param *.**.nic.phy80211p.useThermalNoise true
param *.annotations.draw true
param *.connectionManager.drawMaxIntfDist false
param *.connectionManager.maxInterfDist 2600m
param *.connectionManager.sendDirect true
param *.manager.autoShutdown true
param *.manager.host "\"localhost\""
param *.manager.launchConfig "xmldoc(\"mycross.launchd.xml\")"
param *.manager.port 9999
param *.manager.updateInterval 1s
param *.node[*].appl.TrAD true
param *.node[*].appl.TrAD_Neig 25
param *.node[*].appl.TrAD_R 366
param *.node[*].appl.TrAD_alpha 10
param *.node[*].appl.TrAD_ti 0.005
param *.node[*].appl.beaconInterval 1s
param *.node[*].appl.dataOnSch false
param *.node[*].appl.headerLength "80 bit"
param *.node[*].appl.sendBeacons true
param *.node[*].appl.sendWSA true
param *.node[*].applType "\"myWaveAppLayer\""
param *.node[*].veinsmobility.x 0
param *.node[*].veinsmobility.y 0
param *.node[*].veinsmobility.z 1.895
param *.node[*].veinsmobilityType.debug true
param *.node[20].appl.Accident_start 30
param *.node[40].veinsmobility.accidentCount 1
param *.node[40].veinsmobility.accidentDuration 40s
param *.node[40].veinsmobility.accidentStart 30s
param *.obstacles.debug false
param *.playgroundSizeX 2500m
param *.playgroundSizeY 2500m
param *.playgroundSizeZ 50m
param *.rsu[*].appl.beaconInterval 0.1s
param *.rsu[*].appl.beaconUserPriority 7
param *.rsu[*].appl.dataOnSch false
param *.rsu[*].appl.dataUserPriority 5
param *.rsu[*].appl.headerLength "80 bit"
param *.rsu[*].appl.sendBeacons false
param *.rsu[*].applType "\"TraCIDemoRSU11p\""
param *.rsu[0].mobility.x 500
param *.rsu[0].mobility.y 500
param *.rsu[0].mobility.z 3

vector 1850  Scenario2_SlowSpeed.node[0].veinsmobility  posx  ETV
vector 1851  Scenario2_SlowSpeed.node[0].veinsmobility  posy  ETV
vector 1857  Scenario2_SlowSpeed.node[1].veinsmobility  posx  ETV
vector 1858  Scenario2_SlowSpeed.node[1].veinsmobility  posy  ETV
vector 1864  Scenario2_SlowSpeed.node[2].veinsmobility  posx  ETV
vector 1865  Scenario2_SlowSpeed.node[2].veinsmobility  posy  ETV
vector 1871  Scenario2_SlowSpeed.node[3].veinsmobility  posx  ETV
vector 1872  Scenario2_SlowSpeed.node[3].veinsmobility  posy  ETV
vector 1878  Scenario2_SlowSpeed.node[4].veinsmobility  posx  ETV
vector 1879  Scenario2_SlowSpeed.node[4].veinsmobility  posy  ETV
vector 1885  Scenario2_SlowSpeed.node[5].veinsmobility  posx  ETV
vector 1886  Scenario2_SlowSpeed.node[5].veinsmobility  posy  ETV
vector 1892  Scenario2_SlowSpeed.node[6].veinsmobility  posx  ETV
vector 1893  Scenario2_SlowSpeed.node[6].veinsmobility  posy  ETV
vector 1899  Scenario2_SlowSpeed.node[7].veinsmobility  posx  ETV
vector 1900  Scenario2_SlowSpeed.node[7].veinsmobility  posy  ETV
vector 1906  Scenario2_SlowSpeed.node[8].veinsmobility  posx  ETV
vector 1907  Scenario2_SlowSpeed.node[8].veinsmobility  posy  ETV
vector 1913  Scenario2_SlowSpeed.node[9].veinsmobility  posx  ETV
vector 1914  Scenario2_SlowSpeed.node[9].veinsmobility  posy  ETV
vector 1920  Scenario2_SlowSpeed.node[10].veinsmobility  posx  ETV
vector 1921  Scenario2_SlowSpeed.node[10].veinsmobility  posy  ETV
vector 1927  Scenario2_SlowSpeed.node[11].veinsmobility  posx  ETV
vector 1928  Scenario2_SlowSpeed.node[11].veinsmobility  posy  ETV
vector 1934  Scenario2_SlowSpeed.node[12].veinsmobility  posx  ETV
vector 1935  Scenario2_SlowSpeed.node[12].veinsmobility  posy  ETV
vector 1941  Scenario2_SlowSpeed.node[13].veinsmobility  posx  ETV
vector 1942  Scenario2_SlowSpeed.node[13].veinsmobility  posy  ETV
vector 1948  Scenario2_SlowSpeed.node[14].veinsmobility  posx  ETV
vector 1949  Scenario2_SlowSpeed.node[14].veinsmobility  posy  ETV
vector 1955  Scenario2_SlowSpeed.node[15].veinsmobility  posx  ETV
vector 1956  Scenario2_SlowSpeed.node[15].veinsmobility  posy  ETV
vector 1962  Scenario2_SlowSpeed.node[16].veinsmobility  posx  ETV
vector 1963  Scenario2_SlowSpeed.node[16].veinsmobility  posy  ETV
vector 1969  Scenario2_SlowSpeed.node[17].veinsmobility  posx  ETV
vector 1970  Scenario2_SlowSpeed.node[17].veinsmobility  posy  ETV
vector 1976  Scenario2_SlowSpeed.node[18].veinsmobility  posx  ETV
vector 1977  Scenario2_SlowSpeed.node[18].veinsmobility  posy  ETV
vector 1983  Scenario2_SlowSpeed.node[19].veinsmobility  posx  ETV
vector 1984  Scenario2_SlowSpeed.node[19].veinsmobility  posy  ETV
vector 1990  Scenario2_SlowSpeed.node[20].veinsmobility  posx  ETV
vector 1991  Scenario2_SlowSpeed.node[20].veinsmobility  posy  ETV
vector 1997  Scenario2_SlowSpeed.node[21].veinsmobility  posx  ETV
vector 1998  Scenario2_SlowSpeed.node[21].veinsmobility  posy  ETV
vector 2004  Scenario2_SlowSpeed.node[22].veinsmobility  posx  ETV
vector 2005  Scenario2_SlowSpeed.node[22].veinsmobility  posy  ETV
vector 2011  Scenario2_SlowSpeed.node[23].veinsmobility  posx  ETV
vector 2012  Scenario2_SlowSpeed.node[23].veinsmobility  posy  ETV
vector 2018  Scenario2_SlowSpeed.node[24].veinsmobility  posx  ETV
vector 2019  Scenario2_SlowSpeed.node[24].veinsmobility  posy  ETV
vector 2025  Scenario2_SlowSpeed.node[25].veinsmobility  posx  ETV
vector 2026  Scenario2_SlowSpeed.node[25].veinsmobility  posy  ETV
vector 2032  Scenario2_SlowSpeed.node[26].veinsmobility  posx  ETV
vector 2033  Scenario2_SlowSpeed.node[26].veinsmobility  posy  ETV
vector 2039  Scenario2_SlowSpeed.node[27].veinsmobility  posx  ETV
vector 2040  Scenario2_SlowSpeed.node[27].veinsmobility  posy  ETV
vector 2046  Scenario2_SlowSpeed.node[28].veinsmobility  posx  ETV
vector 2047  Scenario2_SlowSpeed.node[28].veinsmobility  posy  ETV
vector 2053  Scenario2_SlowSpeed.node[29].veinsmobility  posx  ETV
vector 2054  Scenario2_SlowSpeed.node[29].veinsmobility  posy  ETV
vector 2060  Scenario2_SlowSpeed.node[30].veinsmobility  posx  ETV
vector 2061  Scenario2_SlowSpeed.node[30].veinsmobility  posy  ETV
vector 2067  Scenario2_SlowSpeed.node[31].veinsmobility  posx  ETV
vector 2068  Scenario2_SlowSpeed.node[31].veinsmobility  posy  ETV
vector 2074  Scenario2_SlowSpeed.node[32].veinsmobility  posx  ETV
vector 2075  Scenario2_SlowSpeed.node[32].veinsmobility  posy  ETV
vector 2081  Scenario2_SlowSpeed.node[33].veinsmobility  posx  ETV
vector 2082  Scenario2_SlowSpeed.node[33].veinsmobility  posy  ETV
vector 2088  Scenario2_SlowSpeed.node[34].veinsmobility  posx  ETV
vector 2089  Scenario2_SlowSpeed.node[34].veinsmobility  posy  ETV
vector 2095  Scenario2_SlowSpeed.node[35].veinsmobility  posx  ETV
vector 2096  Scenario2_SlowSpeed.node[35].veinsmobility  posy  ETV
vector 2102  Scenario2_SlowSpeed.node[36].veinsmobility  posx  ETV
vector 2103  Scenario2_SlowSpeed.node[36].veinsmobility  posy  ETV
vector 2109  Scenario2_SlowSpeed.node[37].veinsmobility  posx  ETV
vector 2110  Scenario2_SlowSpeed.node[37].veinsmobility  posy  ETV
vector 2116  Scenario2_SlowSpeed.node[38].veinsmobility  posx  ETV
vector 2117  Scenario2_SlowSpeed.node[38].veinsmobility  posy  ETV
vector 2123  Scenario2_SlowSpeed.node[39].veinsmobility  posx  ETV
vector 2124  Scenario2_SlowSpeed.node[39].veinsmobility  posy  ETV
vector 2130  Scenario2_SlowSpeed.node[40].veinsmobility  posx  ETV
vector 2131  Scenario2_SlowSpeed.node[40].veinsmobility  posy  ETV
vector 2137  Scenario2_SlowSpeed.node[41].veinsmobility  posx  ETV
vector 2138  Scenario2_SlowSpeed.node[41].veinsmobility  posy  ETV
vector 2144  Scenario2_SlowSpeed.node[42].veinsmobility  posx  ETV
vector 2145  Scenario2_SlowSpeed.node[42].veinsmobility  posy  ETV
vector 2151  Scenario2_SlowSpeed.node[43].veinsmobility  posx  ETV
vector 2152  Scenario2_SlowSpeed.node[43].veinsmobility  posy  ETV
vector 2158  Scenario2_SlowSpeed.node[44].veinsmobility  posx  ETV
vector 2159  Scenario2_SlowSpeed.node[44].veinsmobility  posy  ETV
vector 2165  Scenario2_SlowSpeed.node[45].veinsmobility  posx  ETV
vector 2166  Scenario2_SlowSpeed.node[45].veinsmobility  posy  ETV
vector 2172  Scenario2_SlowSpeed.node[46].veinsmobility  posx  ETV
vector 2173  Scenario2_SlowSpeed.node[46].veinsmobility  posy  ETV
vector 2179  Scenario2_SlowSpeed.node[47].veinsmobility  posx  ETV
vector 2180  Scenario2_SlowSpeed.node[47].veinsmobility  posy  ETV
vector 2186  Scenario2_SlowSpeed.node[48].veinsmobility  posx  ETV
vector 2187  Scenario2_SlowSpeed.node[48].veinsmobility  posy  ETV
vector 2193  Scenario2_SlowSpeed.node[49].veinsmobility  posx  ETV
vector 2194  Scenario2_SlowSpeed.node[49].veinsmobility  posy  ETV
vector 2200  Scenario2_SlowSpeed.node[50].veinsmobility  posx  ETV
vector 2201  Scenario2_SlowSpeed.node[50].veinsmobility  posy  ETV
vector 2207  Scenario2_SlowSpeed.node[51].veinsmobility  posx  ETV
vector 2208  Scenario2_SlowSpeed.node[51].veinsmobility  posy  ETV
vector 2214  Scenario2_SlowSpeed.node[52].veinsmobility  posx  ETV
vector 2215  Scenario2_SlowSpeed.node[52].veinsmobility  posy  ETV
vector 2221  Scenario2_SlowSpeed.node[53].veinsmobility  posx  ETV
vector 2222  Scenario2_SlowSpeed.node[53].veinsmobility  posy  ETV
vector 2228  Scenario2_SlowSpeed.node[54].veinsmobility  posx  ETV
vector 2229  Scenario2_SlowSpeed.node[54].veinsmobility  posy  ETV
vector 2235  Scenario2_SlowSpeed.node[55].veinsmobility  posx  ETV
vector 2236  Scenario2_SlowSpeed.node[55].veinsmobility  posy  ETV
vector 2242  Scenario2_SlowSpeed.node[56].veinsmobility  posx  ETV
vector 2243  Scenario2_SlowSpeed.node[56].veinsmobility  posy  ETV
vector 2249  Scenario2_SlowSpeed.node[57].veinsmobility  posx  ETV
vector 2250  Scenario2_SlowSpeed.node[57].veinsmobility  posy  ETV
vector 2256  Scenario2_SlowSpeed.node[58].veinsmobility  posx  ETV
vector 2257  Scenario2_SlowSpeed.node[58].veinsmobility  posy  ETV
vector 2263  Scenario2_SlowSpeed.node[59].veinsmobility  posx  ETV
vector 2264  Scenario2_SlowSpeed.node[59].veinsmobility  posy  ETV
vector 2270  Scenario2_SlowSpeed.node[60].veinsmobility  posx  ETV
vector 2271  Scenario2_SlowSpeed.node[60].veinsmobility  posy  ETV
vector 2277  Scenario2_SlowSpeed.node[61].veinsmobility  posx  ETV
vector 2278  Scenario2_SlowSpeed.node[61].veinsmobility  posy  ETV
vector 2284  Scenario2_SlowSpeed.node[62].veinsmobility  posx  ETV
vector 2285  Scenario2_SlowSpeed.node[62].veinsmobility  posy  ETV
vector 2291  Scenario2_SlowSpeed.node[63].veinsmobility  posx  ETV
vector 2292  Scenario2_SlowSpeed.node[63].veinsmobility  posy  ETV
vector 2298  Scenario2_SlowSpeed.node[64].veinsmobility  posx  ETV
vector 2299  Scenario2_SlowSpeed.node[64].veinsmobility  posy  ETV
vector 2305  Scenario2_SlowSpeed.node[65].veinsmobility  posx  ETV
vector 2306  Scenario2_SlowSpeed.node[65].veinsmobility  posy  ETV
vector 2312  Scenario2_SlowSpeed.node[66].veinsmobility  posx  ETV
vector 2313  Scenario2_SlowSpeed.node[66].veinsmobility  posy  ETV
vector 2319  Scenario2_SlowSpeed.node[67].veinsmobility  posx  ETV
vector 2320  Scenario2_SlowSpeed.node[67].veinsmobility  posy  ETV
vector 2326  Scenario2_SlowSpeed.node[68].veinsmobility  posx  ETV
vector 2327  Scenario2_SlowSpeed.node[68].veinsmobility  posy  ETV
vector 2333  Scenario2_SlowSpeed.node[69].veinsmobility  posx  ETV
vector 2334  Scenario2_SlowSpeed.node[69].veinsmobility  posy  ETV
vector 2340  Scenario2_SlowSpeed.node[70].veinsmobility  posx  ETV
vector 2341  Scenario2_SlowSpeed.node[70].veinsmobility  posy  ETV
vector 2347  Scenario2_SlowSpeed.node[71].veinsmobility  posx  ETV
vector 2348  Scenario2_SlowSpeed.node[71].veinsmobility  posy  ETV
vector 1852  Scenario2_SlowSpeed.node[0].veinsmobility  speed  ETV
vector 1859  Scenario2_SlowSpeed.node[1].veinsmobility  speed  ETV
vector 1866  Scenario2_SlowSpeed.node[2].veinsmobility  speed  ETV
vector 1873  Scenario2_SlowSpeed.node[3].veinsmobility  speed  ETV
vector 1880  Scenario2_SlowSpeed.node[4].veinsmobility  speed  ETV
vector 1887  Scenario2_SlowSpeed.node[5].veinsmobility  speed  ETV
vector 1894  Scenario2_SlowSpeed.node[6].veinsmobility  speed  ETV
vector 1901  Scenario2_SlowSpeed.node[7].veinsmobility  speed  ETV
vector 1908  Scenario2_SlowSpeed.node[8].veinsmobility  speed  ETV
vector 1915  Scenario2_SlowSpeed.node[9].veinsmobility  speed  ETV
vector 1922  Scenario2_SlowSpeed.node[10].veinsmobility  speed  ETV
vector 1929  Scenario2_SlowSpeed.node[11].veinsmobility  speed  ETV
vector 1936  Scenario2_SlowSpeed.node[12].veinsmobility  speed  ETV
vector 1943  Scenario2_SlowSpeed.node[13].veinsmobility  speed  ETV
vector 1950  Scenario2_SlowSpeed.node[14].veinsmobility  speed  ETV
vector 1957  Scenario2_SlowSpeed.node[15].veinsmobility  speed  ETV
vector 1964  Scenario2_SlowSpeed.node[16].veinsmobility  speed  ETV
vector 1971  Scenario2_SlowSpeed.node[17].veinsmobility  speed  ETV
vector 1978  Scenario2_SlowSpeed.node[18].veinsmobility  speed  ETV
vector 1985  Scenario2_SlowSpeed.node[19].veinsmobility  speed  ETV
vector 1992  Scenario2_SlowSpeed.node[20].veinsmobility  speed  ETV
vector 1999  Scenario2_SlowSpeed.node[21].veinsmobility  speed  ETV
vector 2006  Scenario2_SlowSpeed.node[22].veinsmobility  speed  ETV
vector 2013  Scenario2_SlowSpeed.node[23].veinsmobility  speed  ETV
vector 2020  Scenario2_SlowSpeed.node[24].veinsmobility  speed  ETV
vector 2027  Scenario2_SlowSpeed.node[25].veinsmobility  speed  ETV
vector 2034  Scenario2_SlowSpeed.node[26].veinsmobility  speed  ETV
vector 2041  Scenario2_SlowSpeed.node[27].veinsmobility  speed  ETV
vector 2048  Scenario2_SlowSpeed.node[28].veinsmobility  speed  ETV
vector 2055  Scenario2_SlowSpeed.node[29].veinsmobility  speed  ETV
vector 2062  Scenario2_SlowSpeed.node[30].veinsmobility  speed  ETV
vector 2069  Scenario2_SlowSpeed.node[31].veinsmobility  speed  ETV
vector 2076  Scenario2_SlowSpeed.node[32].veinsmobility  speed  ETV
vector 2083  Scenario2_SlowSpeed.node[33].veinsmobility  speed  ETV
vector 2090  Scenario2_SlowSpeed.node[34].veinsmobility  speed  ETV
vector 2097  Scenario2_SlowSpeed.node[35].veinsmobility  speed  ETV
vector 2104  Scenario2_SlowSpeed.node[36].veinsmobility  speed  ETV
vector 2111  Scenario2_SlowSpeed.node[37].veinsmobility  speed  ETV
vector 2118  Scenario2_SlowSpeed.node[38].veinsmobility  speed  ETV
vector 2125  Scenario2_SlowSpeed.node[39].veinsmobility  speed  ETV
vector 2132  Scenario2_SlowSpeed.node[40].veinsmobility  speed  ETV
vector 2139  Scenario2_SlowSpeed.node[41].veinsmobility  speed  ETV
vector 2146  Scenario2_SlowSpeed.node[42].veinsmobility  speed  ETV
vector 2153  Scenario2_SlowSpeed.node[43].veinsmobility  speed  ETV
vector 2160  Scenario2_SlowSpeed.node[44].veinsmobility  speed  ETV
vector 2167  Scenario2_SlowSpeed.node[45].veinsmobility  speed  ETV
vector 2174  Scenario2_SlowSpeed.node[46].veinsmobility  speed  ETV
vector 2354  Scenario2_SlowSpeed.node[72].veinsmobility  posx  ETV
vector 2355  Scenario2_SlowSpeed.node[72].veinsmobility  posy  ETV
vector 2361  Scenario2_SlowSpeed.node[73].veinsmobility  posx  ETV
vector 2362  Scenario2_SlowSpeed.node[73].veinsmobility  posy  ETV
vector 2368  Scenario2_SlowSpeed.node[74].veinsmobility  posx  ETV
vector 2369  Scenario2_SlowSpeed.node[74].veinsmobility  posy  ETV
vector 2375  Scenario2_SlowSpeed.node[75].veinsmobility  posx  ETV
vector 2376  Scenario2_SlowSpeed.node[75].veinsmobility  posy  ETV
vector 2382  Scenario2_SlowSpeed.node[76].veinsmobility  posx  ETV
vector 2383  Scenario2_SlowSpeed.node[76].veinsmobility  posy  ETV
vector 2389  Scenario2_SlowSpeed.node[77].veinsmobility  posx  ETV
vector 2390  Scenario2_SlowSpeed.node[77].veinsmobility  posy  ETV
vector 2396  Scenario2_SlowSpeed.node[78].veinsmobility  posx  ETV
vector 2397  Scenario2_SlowSpeed.node[78].veinsmobility  posy  ETV
vector 2403  Scenario2_SlowSpeed.node[79].veinsmobility  posx  ETV
vector 2404  Scenario2_SlowSpeed.node[79].veinsmobility  posy  ETV
vector 1853  Scenario2_SlowSpeed.node[0].veinsmobility  acceleration  ETV
vector 1854  Scenario2_SlowSpeed.node[0].veinsmobility  co2emission  ETV
vector 1860  Scenario2_SlowSpeed.node[1].veinsmobility  acceleration  ETV
vector 1861  Scenario2_SlowSpeed.node[1].veinsmobility  co2emission  ETV
vector 1867  Scenario2_SlowSpeed.node[2].veinsmobility  acceleration  ETV
vector 1868  Scenario2_SlowSpeed.node[2].veinsmobility  co2emission  ETV
vector 1874  Scenario2_SlowSpeed.node[3].veinsmobility  acceleration  ETV
vector 1875  Scenario2_SlowSpeed.node[3].veinsmobility  co2emission  ETV
vector 1881  Scenario2_SlowSpeed.node[4].veinsmobility  acceleration  ETV
vector 1882  Scenario2_SlowSpeed.node[4].veinsmobility  co2emission  ETV
vector 1888  Scenario2_SlowSpeed.node[5].veinsmobility  acceleration  ETV
vector 1889  Scenario2_SlowSpeed.node[5].veinsmobility  co2emission  ETV
vector 1895  Scenario2_SlowSpeed.node[6].veinsmobility  acceleration  ETV
vector 1896  Scenario2_SlowSpeed.node[6].veinsmobility  co2emission  ETV
vector 1902  Scenario2_SlowSpeed.node[7].veinsmobility  acceleration  ETV
vector 1903  Scenario2_SlowSpeed.node[7].veinsmobility  co2emission  ETV
vector 1909  Scenario2_SlowSpeed.node[8].veinsmobility  acceleration  ETV
vector 1910  Scenario2_SlowSpeed.node[8].veinsmobility  co2emission  ETV
vector 1916  Scenario2_SlowSpeed.node[9].veinsmobility  acceleration  ETV
vector 1917  Scenario2_SlowSpeed.node[9].veinsmobility  co2emission  ETV
vector 1923  Scenario2_SlowSpeed.node[10].veinsmobility  acceleration  ETV
vector 1924  Scenario2_SlowSpeed.node[10].veinsmobility  co2emission  ETV
vector 1930  Scenario2_SlowSpeed.node[11].veinsmobility  acceleration  ETV
vector 1931  Scenario2_SlowSpeed.node[11].veinsmobility  co2emission  ETV
vector 1937  Scenario2_SlowSpeed.node[12].veinsmobility  acceleration  ETV
vector 1938  Scenario2_SlowSpeed.node[12].veinsmobility  co2emission  ETV
vector 1944  Scenario2_SlowSpeed.node[13].veinsmobility  acceleration  ETV
vector 1945  Scenario2_SlowSpeed.node[13].veinsmobility  co2emission  ETV
vector 1951  Scenario2_SlowSpeed.node[14].veinsmobility  acceleration  ETV
vector 1952  Scenario2_SlowSpeed.node[14].veinsmobility  co2emission  ETV
vector 1958  Scenario2_SlowSpeed.node[15].veinsmobility  acceleration  ETV
vector 1959  Scenario2_SlowSpeed.node[15].veinsmobility  co2emission  ETV
vector 1965  Scenario2_SlowSpeed.node[16].veinsmobility  acceleration  ETV
vector 1966  Scenario2_SlowSpeed.node[16].veinsmobility  co2emission  ETV
vector 1972  Scenario2_SlowSpeed.node[17].veinsmobility  acceleration  ETV
vector 1973  Scenario2_SlowSpeed.node[17].veinsmobility  co2emission  ETV
vector 1979  Scenario2_SlowSpeed.node[18].veinsmobility  acceleration  ETV
vector 1980  Scenario2_SlowSpeed.node[18].veinsmobility  co2emission  ETV
vector 1986  Scenario2_SlowSpeed.node[19].veinsmobility  acceleration  ETV
vector 1987  Scenario2_SlowSpeed.node[19].veinsmobility  co2emission  ETV
vector 1993  Scenario2_SlowSpeed.node[20].veinsmobility  acceleration  ETV
vector 1994  Scenario2_SlowSpeed.node[20].veinsmobility  co2emission  ETV
vector 2000  Scenario2_SlowSpeed.node[21].veinsmobility  acceleration  ETV
vector 2001  Scenario2_SlowSpeed.node[21].veinsmobility  co2emission  ETV
vector 2007  Scenario2_SlowSpeed.node[22].veinsmobility  acceleration  ETV
vector 2008  Scenario2_SlowSpeed.node[22].veinsmobility  co2emission  ETV
vector 2014  Scenario2_SlowSpeed.node[23].veinsmobility  acceleration  ETV
vector 2015  Scenario2_SlowSpeed.node[23].veinsmobility  co2emission  ETV
vector 2021  Scenario2_SlowSpeed.node[24].veinsmobility  acceleration  ETV
vector 2022  Scenario2_SlowSpeed.node[24].veinsmobility  co2emission  ETV
vector 2028  Scenario2_SlowSpeed.node[25].veinsmobility  acceleration  ETV
vector 2029  Scenario2_SlowSpeed.node[25].veinsmobility  co2emission  ETV
vector 2035  Scenario2_SlowSpeed.node[26].veinsmobility  acceleration  ETV
vector 2036  Scenario2_SlowSpeed.node[26].veinsmobility  co2emission  ETV
vector 2042  Scenario2_SlowSpeed.node[27].veinsmobility  acceleration  ETV
vector 2043  Scenario2_SlowSpeed.node[27].veinsmobility  co2emission  ETV
vector 2049  Scenario2_SlowSpeed.node[28].veinsmobility  acceleration  ETV
vector 2050  Scenario2_SlowSpeed.node[28].veinsmobility  co2emission  ETV
vector 2056  Scenario2_SlowSpeed.node[29].veinsmobility  acceleration  ETV
vector 2057  Scenario2_SlowSpeed.node[29].veinsmobility  co2emission  ETV
vector 2063  Scenario2_SlowSpeed.node[30].veinsmobility  acceleration  ETV
vector 2064  Scenario2_SlowSpeed.node[30].veinsmobility  co2emission  ETV
vector 2070  Scenario2_SlowSpeed.node[31].veinsmobility  acceleration  ETV
vector 2071  Scenario2_SlowSpeed.node[31].veinsmobility  co2emission  ETV
vector 2077  Scenario2_SlowSpeed.node[32].veinsmobility  acceleration  ETV
vector 2078  Scenario2_SlowSpeed.node[32].veinsmobility  co2emission  ETV
vector 2084  Scenario2_SlowSpeed.node[33].veinsmobility  acceleration  ETV
vector 2085  Scenario2_SlowSpeed.node[33].veinsmobility  co2emission  ETV
vector 2091  Scenario2_SlowSpeed.node[34].veinsmobility  acceleration  ETV
vector 2092  Scenario2_SlowSpeed.node[34].veinsmobility  co2emission  ETV
vector 2098  Scenario2_SlowSpeed.node[35].veinsmobility  acceleration  ETV
vector 2099  Scenario2_SlowSpeed.node[35].veinsmobility  co2emission  ETV
vector 2105  Scenario2_SlowSpeed.node[36].veinsmobility  acceleration  ETV
vector 2106  Scenario2_SlowSpeed.node[36].veinsmobility  co2emission  ETV
vector 2112  Scenario2_SlowSpeed.node[37].veinsmobility  acceleration  ETV
vector 2113  Scenario2_SlowSpeed.node[37].veinsmobility  co2emission  ETV
vector 2119  Scenario2_SlowSpeed.node[38].veinsmobility  acceleration  ETV
vector 2120  Scenario2_SlowSpeed.node[38].veinsmobility  co2emission  ETV
vector 2126  Scenario2_SlowSpeed.node[39].veinsmobility  acceleration  ETV
vector 2127  Scenario2_SlowSpeed.node[39].veinsmobility  co2emission  ETV
vector 2133  Scenario2_SlowSpeed.node[40].veinsmobility  acceleration  ETV
vector 2134  Scenario2_SlowSpeed.node[40].veinsmobility  co2emission  ETV
vector 2140  Scenario2_SlowSpeed.node[41].veinsmobility  acceleration  ETV
vector 2141  Scenario2_SlowSpeed.node[41].veinsmobility  co2emission  ETV
vector 2147  Scenario2_SlowSpeed.node[42].veinsmobility  acceleration  ETV
vector 2148  Scenario2_SlowSpeed.node[42].veinsmobility  co2emission  ETV
vector 2154  Scenario2_SlowSpeed.node[43].veinsmobility  acceleration  ETV
vector 2155  Scenario2_SlowSpeed.node[43].veinsmobility  co2emission  ETV
vector 2161  Scenario2_SlowSpeed.node[44].veinsmobility  acceleration  ETV
vector 2162  Scenario2_SlowSpeed.node[44].veinsmobility  co2emission  ETV
vector 2168  Scenario2_SlowSpeed.node[45].veinsmobility  acceleration  ETV
vector 2169  Scenario2_SlowSpeed.node[45].veinsmobility  co2emission  ETV
vector 2175  Scenario2_SlowSpeed.node[46].veinsmobility  acceleration  ETV
vector 2176  Scenario2_SlowSpeed.node[46].veinsmobility  co2emission  ETV
vector 2181  Scenario2_SlowSpeed.node[47].veinsmobility  speed  ETV
vector 2188  Scenario2_SlowSpeed.node[48].veinsmobility  speed  ETV
vector 2195  Scenario2_SlowSpeed.node[49].veinsmobility  speed  ETV
vector 2202  Scenario2_SlowSpeed.node[50].veinsmobility  speed  ETV
vector 2209  Scenario2_SlowSpeed.node[51].veinsmobility  speed  ETV
vector 2216  Scenario2_SlowSpeed.node[52].veinsmobility  speed  ETV
vector 2223  Scenario2_SlowSpeed.node[53].veinsmobility  speed  ETV
vector 2230  Scenario2_SlowSpeed.node[54].veinsmobility  speed  ETV
vector 2237  Scenario2_SlowSpeed.node[55].veinsmobility  speed  ETV
vector 2244  Scenario2_SlowSpeed.node[56].veinsmobility  speed  ETV
vector 2251  Scenario2_SlowSpeed.node[57].veinsmobility  speed  ETV
vector 2258  Scenario2_SlowSpeed.node[58].veinsmobility  speed  ETV
vector 2265  Scenario2_SlowSpeed.node[59].veinsmobility  speed  ETV
vector 2272  Scenario2_SlowSpeed.node[60].veinsmobility  speed  ETV
vector 2279  Scenario2_SlowSpeed.node[61].veinsmobility  speed  ETV
vector 2286  Scenario2_SlowSpeed.node[62].veinsmobility  speed  ETV
vector 2293  Scenario2_SlowSpeed.node[63].veinsmobility  speed  ETV
vector 2300  Scenario2_SlowSpeed.node[64].veinsmobility  speed  ETV
vector 2307  Scenario2_SlowSpeed.node[65].veinsmobility  speed  ETV
vector 2314  Scenario2_SlowSpeed.node[66].veinsmobility  speed  ETV
vector 2321  Scenario2_SlowSpeed.node[67].veinsmobility  speed  ETV
vector 2328  Scenario2_SlowSpeed.node[68].veinsmobility  speed  ETV
vector 2335  Scenario2_SlowSpeed.node[69].veinsmobility  speed  ETV
vector 2342  Scenario2_SlowSpeed.node[70].veinsmobility  speed  ETV
vector 2349  Scenario2_SlowSpeed.node[71].veinsmobility  speed  ETV
vector 2410  Scenario2_SlowSpeed.node[80].veinsmobility  posx  ETV
vector 2411  Scenario2_SlowSpeed.node[80].veinsmobility  posy  ETV
vector 2417  Scenario2_SlowSpeed.node[81].veinsmobility  posx  ETV
vector 2418  Scenario2_SlowSpeed.node[81].veinsmobility  posy  ETV
vector 2424  Scenario2_SlowSpeed.node[82].veinsmobility  posx  ETV
vector 2425  Scenario2_SlowSpeed.node[82].veinsmobility  posy  ETV
vector 2431  Scenario2_SlowSpeed.node[83].veinsmobility  posx  ETV
vector 2432  Scenario2_SlowSpeed.node[83].veinsmobility  posy  ETV
vector 2438  Scenario2_SlowSpeed.node[84].veinsmobility  posx  ETV
vector 2439  Scenario2_SlowSpeed.node[84].veinsmobility  posy  ETV
vector 2445  Scenario2_SlowSpeed.node[85].veinsmobility  posx  ETV
vector 2446  Scenario2_SlowSpeed.node[85].veinsmobility  posy  ETV
vector 2182  Scenario2_SlowSpeed.node[47].veinsmobility  acceleration  ETV
vector 2183  Scenario2_SlowSpeed.node[47].veinsmobility  co2emission  ETV
vector 2189  Scenario2_SlowSpeed.node[48].veinsmobility  acceleration  ETV
vector 2190  Scenario2_SlowSpeed.node[48].veinsmobility  co2emission  ETV
vector 2196  Scenario2_SlowSpeed.node[49].veinsmobility  acceleration  ETV
vector 2197  Scenario2_SlowSpeed.node[49].veinsmobility  co2emission  ETV
vector 2203  Scenario2_SlowSpeed.node[50].veinsmobility  acceleration  ETV
vector 2204  Scenario2_SlowSpeed.node[50].veinsmobility  co2emission  ETV
vector 2210  Scenario2_SlowSpeed.node[51].veinsmobility  acceleration  ETV
vector 2211  Scenario2_SlowSpeed.node[51].veinsmobility  co2emission  ETV
vector 2217  Scenario2_SlowSpeed.node[52].veinsmobility  acceleration  ETV
vector 2218  Scenario2_SlowSpeed.node[52].veinsmobility  co2emission  ETV
vector 2224  Scenario2_SlowSpeed.node[53].veinsmobility  acceleration  ETV
vector 2225  Scenario2_SlowSpeed.node[53].veinsmobility  co2emission  ETV
vector 2231  Scenario2_SlowSpeed.node[54].veinsmobility  acceleration  ETV
vector 2232  Scenario2_SlowSpeed.node[54].veinsmobility  co2emission  ETV
vector 2238  Scenario2_SlowSpeed.node[55].veinsmobility  acceleration  ETV
vector 2239  Scenario2_SlowSpeed.node[55].veinsmobility  co2emission  ETV
vector 2245  Scenario2_SlowSpeed.node[56].veinsmobility  acceleration  ETV
vector 2246  Scenario2_SlowSpeed.node[56].veinsmobility  co2emission  ETV
vector 2252  Scenario2_SlowSpeed.node[57].veinsmobility  acceleration  ETV
vector 2253  Scenario2_SlowSpeed.node[57].veinsmobility  co2emission  ETV
vector 2259  Scenario2_SlowSpeed.node[58].veinsmobility  acceleration  ETV
vector 2260  Scenario2_SlowSpeed.node[58].veinsmobility  co2emission  ETV
vector 2266  Scenario2_SlowSpeed.node[59].veinsmobility  acceleration  ETV
vector 2267  Scenario2_SlowSpeed.node[59].veinsmobility  co2emission  ETV
vector 2273  Scenario2_SlowSpeed.node[60].veinsmobility  acceleration  ETV
vector 2274  Scenario2_SlowSpeed.node[60].veinsmobility  co2emission  ETV
vector 2280  Scenario2_SlowSpeed.node[61].veinsmobility  acceleration  ETV
vector 2281  Scenario2_SlowSpeed.node[61].veinsmobility  co2emission  ETV
vector 2287  Scenario2_SlowSpeed.node[62].veinsmobility  acceleration  ETV
vector 2288  Scenario2_SlowSpeed.node[62].veinsmobility  co2emission  ETV
vector 2294  Scenario2_SlowSpeed.node[63].veinsmobility  acceleration  ETV
vector 2295  Scenario2_SlowSpeed.node[63].veinsmobility  co2emission  ETV
vector 2301  Scenario2_SlowSpeed.node[64].veinsmobility  acceleration  ETV
vector 2302  Scenario2_SlowSpeed.node[64].veinsmobility  co2emission  ETV
vector 2308  Scenario2_SlowSpeed.node[65].veinsmobility  acceleration  ETV
vector 2309  Scenario2_SlowSpeed.node[65].veinsmobility  co2emission  ETV
vector 2315  Scenario2_SlowSpeed.node[66].veinsmobility  acceleration  ETV
vector 2316  Scenario2_SlowSpeed.node[66].veinsmobility  co2emission  ETV
vector 2322  Scenario2_SlowSpeed.node[67].veinsmobility  acceleration  ETV
vector 2323  Scenario2_SlowSpeed.node[67].veinsmobility  co2emission  ETV
vector 2329  Scenario2_SlowSpeed.node[68].veinsmobility  acceleration  ETV
vector 2330  Scenario2_SlowSpeed.node[68].veinsmobility  co2emission  ETV
vector 2336  Scenario2_SlowSpeed.node[69].veinsmobility  acceleration  ETV
vector 2337  Scenario2_SlowSpeed.node[69].veinsmobility  co2emission  ETV
vector 2343  Scenario2_SlowSpeed.node[70].veinsmobility  acceleration  ETV
vector 2344  Scenario2_SlowSpeed.node[70].veinsmobility  co2emission  ETV
vector 2350  Scenario2_SlowSpeed.node[71].veinsmobility  acceleration  ETV
vector 2351  Scenario2_SlowSpeed.node[71].veinsmobility  co2emission  ETV
vector 2356  Scenario2_SlowSpeed.node[72].veinsmobility  speed  ETV
vector 2363  Scenario2_SlowSpeed.node[73].veinsmobility  speed  ETV
vector 2370  Scenario2_SlowSpeed.node[74].veinsmobility  speed  ETV
vector 2377  Scenario2_SlowSpeed.node[75].veinsmobility  speed  ETV
vector 2384  Scenario2_SlowSpeed.node[76].veinsmobility  speed  ETV
vector 2391  Scenario2_SlowSpeed.node[77].veinsmobility  speed  ETV
vector 2398  Scenario2_SlowSpeed.node[78].veinsmobility  speed  ETV
vector 2405  Scenario2_SlowSpeed.node[79].veinsmobility  speed  ETV
vector 2452  Scenario2_SlowSpeed.node[86].veinsmobility  posx  ETV
vector 2453  Scenario2_SlowSpeed.node[86].veinsmobility  posy  ETV
vector 2459  Scenario2_SlowSpeed.node[87].veinsmobility  posx  ETV
vector 2460  Scenario2_SlowSpeed.node[87].veinsmobility  posy  ETV
vector 2466  Scenario2_SlowSpeed.node[88].veinsmobility  posx  ETV
vector 2467  Scenario2_SlowSpeed.node[88].veinsmobility  posy  ETV
vector 2473  Scenario2_SlowSpeed.node[89].veinsmobility  posx  ETV
vector 2474  Scenario2_SlowSpeed.node[89].veinsmobility  posy  ETV
vector 2480  Scenario2_SlowSpeed.node[90].veinsmobility  posx  ETV
vector 2481  Scenario2_SlowSpeed.node[90].veinsmobility  posy  ETV
vector 2357  Scenario2_SlowSpeed.node[72].veinsmobility  acceleration  ETV
vector 2358  Scenario2_SlowSpeed.node[72].veinsmobility  co2emission  ETV
vector 2364  Scenario2_SlowSpeed.node[73].veinsmobility  acceleration  ETV
vector 2365  Scenario2_SlowSpeed.node[73].veinsmobility  co2emission  ETV
vector 2371  Scenario2_SlowSpeed.node[74].veinsmobility  acceleration  ETV
vector 2372  Scenario2_SlowSpeed.node[74].veinsmobility  co2emission  ETV
vector 2378  Scenario2_SlowSpeed.node[75].veinsmobility  acceleration  ETV
vector 2379  Scenario2_SlowSpeed.node[75].veinsmobility  co2emission  ETV
vector 2385  Scenario2_SlowSpeed.node[76].veinsmobility  acceleration  ETV
vector 2386  Scenario2_SlowSpeed.node[76].veinsmobility  co2emission  ETV
vector 2392  Scenario2_SlowSpeed.node[77].veinsmobility  acceleration  ETV
vector 2393  Scenario2_SlowSpeed.node[77].veinsmobility  co2emission  ETV
vector 2399  Scenario2_SlowSpeed.node[78].veinsmobility  acceleration  ETV
vector 2400  Scenario2_SlowSpeed.node[78].veinsmobility  co2emission  ETV
vector 2406  Scenario2_SlowSpeed.node[79].veinsmobility  acceleration  ETV
vector 2407  Scenario2_SlowSpeed.node[79].veinsmobility  co2emission  ETV
vector 2412  Scenario2_SlowSpeed.node[80].veinsmobility  speed  ETV
vector 2419  Scenario2_SlowSpeed.node[81].veinsmobility  speed  ETV
vector 2426  Scenario2_SlowSpeed.node[82].veinsmobility  speed  ETV
vector 2433  Scenario2_SlowSpeed.node[83].veinsmobility  speed  ETV
vector 2440  Scenario2_SlowSpeed.node[84].veinsmobility  speed  ETV
vector 2447  Scenario2_SlowSpeed.node[85].veinsmobility  speed  ETV
vector 2487  Scenario2_SlowSpeed.node[91].veinsmobility  posx  ETV
vector 2488  Scenario2_SlowSpeed.node[91].veinsmobility  posy  ETV
vector 2413  Scenario2_SlowSpeed.node[80].veinsmobility  acceleration  ETV
vector 2414  Scenario2_SlowSpeed.node[80].veinsmobility  co2emission  ETV
vector 2420  Scenario2_SlowSpeed.node[81].veinsmobility  acceleration  ETV
vector 2421  Scenario2_SlowSpeed.node[81].veinsmobility  co2emission  ETV
vector 2427  Scenario2_SlowSpeed.node[82].veinsmobility  acceleration  ETV
vector 2428  Scenario2_SlowSpeed.node[82].veinsmobility  co2emission  ETV
vector 2434  Scenario2_SlowSpeed.node[83].veinsmobility  acceleration  ETV
vector 2435  Scenario2_SlowSpeed.node[83].veinsmobility  co2emission  ETV
vector 2441  Scenario2_SlowSpeed.node[84].veinsmobility  acceleration  ETV
vector 2442  Scenario2_SlowSpeed.node[84].veinsmobility  co2emission  ETV
vector 2448  Scenario2_SlowSpeed.node[85].veinsmobility  acceleration  ETV
vector 2449  Scenario2_SlowSpeed.node[85].veinsmobility  co2emission  ETV
vector 2454  Scenario2_SlowSpeed.node[86].veinsmobility  speed  ETV
vector 2461  Scenario2_SlowSpeed.node[87].veinsmobility  speed  ETV
vector 2468  Scenario2_SlowSpeed.node[88].veinsmobility  speed  ETV
vector 2475  Scenario2_SlowSpeed.node[89].veinsmobility  speed  ETV
vector 2482  Scenario2_SlowSpeed.node[90].veinsmobility  speed  ETV
vector 2494  Scenario2_SlowSpeed.node[92].veinsmobility  posx  ETV
vector 2495  Scenario2_SlowSpeed.node[92].veinsmobility  posy  ETV
vector 2501  Scenario2_SlowSpeed.node[93].veinsmobility  posx  ETV
vector 2502  Scenario2_SlowSpeed.node[93].veinsmobility  posy  ETV
vector 2508  Scenario2_SlowSpeed.node[94].veinsmobility  posx  ETV
vector 2509  Scenario2_SlowSpeed.node[94].veinsmobility  posy  ETV
vector 2515  Scenario2_SlowSpeed.node[95].veinsmobility  posx  ETV
vector 2516  Scenario2_SlowSpeed.node[95].veinsmobility  posy  ETV
vector 2522  Scenario2_SlowSpeed.node[96].veinsmobility  posx  ETV
vector 2523  Scenario2_SlowSpeed.node[96].veinsmobility  posy  ETV
vector 2455  Scenario2_SlowSpeed.node[86].veinsmobility  acceleration  ETV
vector 2456  Scenario2_SlowSpeed.node[86].veinsmobility  co2emission  ETV
vector 2462  Scenario2_SlowSpeed.node[87].veinsmobility  acceleration  ETV
vector 2463  Scenario2_SlowSpeed.node[87].veinsmobility  co2emission  ETV
vector 2469  Scenario2_SlowSpeed.node[88].veinsmobility  acceleration  ETV
vector 2470  Scenario2_SlowSpeed.node[88].veinsmobility  co2emission  ETV
vector 2476  Scenario2_SlowSpeed.node[89].veinsmobility  acceleration  ETV
vector 2477  Scenario2_SlowSpeed.node[89].veinsmobility  co2emission  ETV
vector 2483  Scenario2_SlowSpeed.node[90].veinsmobility  acceleration  ETV
vector 2484  Scenario2_SlowSpeed.node[90].veinsmobility  co2emission  ETV
vector 2489  Scenario2_SlowSpeed.node[91].veinsmobility  speed  ETV
vector 2529  Scenario2_SlowSpeed.node[97].veinsmobility  posx  ETV
vector 2530  Scenario2_SlowSpeed.node[97].veinsmobility  posy  ETV
vector 2536  Scenario2_SlowSpeed.node[98].veinsmobility  posx  ETV
vector 2537  Scenario2_SlowSpeed.node[98].veinsmobility  posy  ETV
vector 2543  Scenario2_SlowSpeed.node[99].veinsmobility  posx  ETV
vector 2544  Scenario2_SlowSpeed.node[99].veinsmobility  posy  ETV
vector 2550  Scenario2_SlowSpeed.node[100].veinsmobility  posx  ETV
vector 2551  Scenario2_SlowSpeed.node[100].veinsmobility  posy  ETV
vector 2557  Scenario2_SlowSpeed.node[101].veinsmobility  posx  ETV
vector 2558  Scenario2_SlowSpeed.node[101].veinsmobility  posy  ETV
vector 2564  Scenario2_SlowSpeed.node[102].veinsmobility  posx  ETV
vector 2565  Scenario2_SlowSpeed.node[102].veinsmobility  posy  ETV
vector 2490  Scenario2_SlowSpeed.node[91].veinsmobility  acceleration  ETV
vector 2491  Scenario2_SlowSpeed.node[91].veinsmobility  co2emission  ETV
vector 2496  Scenario2_SlowSpeed.node[92].veinsmobility  speed  ETV
vector 2503  Scenario2_SlowSpeed.node[93].veinsmobility  speed  ETV
vector 2510  Scenario2_SlowSpeed.node[94].veinsmobility  speed  ETV
vector 2517  Scenario2_SlowSpeed.node[95].veinsmobility  speed  ETV
vector 2524  Scenario2_SlowSpeed.node[96].veinsmobility  speed  ETV
vector 2571  Scenario2_SlowSpeed.node[103].veinsmobility  posx  ETV
vector 2572  Scenario2_SlowSpeed.node[103].veinsmobility  posy  ETV
vector 2578  Scenario2_SlowSpeed.node[104].veinsmobility  posx  ETV
vector 2579  Scenario2_SlowSpeed.node[104].veinsmobility  posy  ETV
vector 2585  Scenario2_SlowSpeed.node[105].veinsmobility  posx  ETV
vector 2586  Scenario2_SlowSpeed.node[105].veinsmobility  posy  ETV
vector 2592  Scenario2_SlowSpeed.node[106].veinsmobility  posx  ETV
vector 2593  Scenario2_SlowSpeed.node[106].veinsmobility  posy  ETV
vector 2599  Scenario2_SlowSpeed.node[107].veinsmobility  posx  ETV
vector 2600  Scenario2_SlowSpeed.node[107].veinsmobility  posy  ETV
vector 2497  Scenario2_SlowSpeed.node[92].veinsmobility  acceleration  ETV
vector 2498  Scenario2_SlowSpeed.node[92].veinsmobility  co2emission  ETV
vector 2504  Scenario2_SlowSpeed.node[93].veinsmobility  acceleration  ETV
vector 2505  Scenario2_SlowSpeed.node[93].veinsmobility  co2emission  ETV
vector 2511  Scenario2_SlowSpeed.node[94].veinsmobility  acceleration  ETV
vector 2512  Scenario2_SlowSpeed.node[94].veinsmobility  co2emission  ETV
vector 2518  Scenario2_SlowSpeed.node[95].veinsmobility  acceleration  ETV
vector 2519  Scenario2_SlowSpeed.node[95].veinsmobility  co2emission  ETV
vector 2525  Scenario2_SlowSpeed.node[96].veinsmobility  acceleration  ETV
vector 2526  Scenario2_SlowSpeed.node[96].veinsmobility  co2emission  ETV
vector 2531  Scenario2_SlowSpeed.node[97].veinsmobility  speed  ETV
vector 2538  Scenario2_SlowSpeed.node[98].veinsmobility  speed  ETV
vector 2545  Scenario2_SlowSpeed.node[99].veinsmobility  speed  ETV
vector 2552  Scenario2_SlowSpeed.node[100].veinsmobility  speed  ETV
vector 2559  Scenario2_SlowSpeed.node[101].veinsmobility  speed  ETV
vector 2566  Scenario2_SlowSpeed.node[102].veinsmobility  speed  ETV
vector 2606  Scenario2_SlowSpeed.node[108].veinsmobility  posx  ETV
vector 2607  Scenario2_SlowSpeed.node[108].veinsmobility  posy  ETV
vector 2613  Scenario2_SlowSpeed.node[109].veinsmobility  posx  ETV
vector 2614  Scenario2_SlowSpeed.node[109].veinsmobility  posy  ETV
vector 2620  Scenario2_SlowSpeed.node[110].veinsmobility  posx  ETV
vector 2621  Scenario2_SlowSpeed.node[110].veinsmobility  posy  ETV
vector 2627  Scenario2_SlowSpeed.node[111].veinsmobility  posx  ETV
vector 2628  Scenario2_SlowSpeed.node[111].veinsmobility  posy  ETV
vector 2634  Scenario2_SlowSpeed.node[112].veinsmobility  posx  ETV
vector 2635  Scenario2_SlowSpeed.node[112].veinsmobility  posy  ETV
vector 2641  Scenario2_SlowSpeed.node[113].veinsmobility  posx  ETV
vector 2642  Scenario2_SlowSpeed.node[113].veinsmobility  posy  ETV
vector 2532  Scenario2_SlowSpeed.node[97].veinsmobility  acceleration  ETV
vector 2533  Scenario2_SlowSpeed.node[97].veinsmobility  co2emission  ETV
vector 2539  Scenario2_SlowSpeed.node[98].veinsmobility  acceleration  ETV
vector 2540  Scenario2_SlowSpeed.node[98].veinsmobility  co2emission  ETV
vector 2546  Scenario2_SlowSpeed.node[99].veinsmobility  acceleration  ETV
vector 2547  Scenario2_SlowSpeed.node[99].veinsmobility  co2emission  ETV
vector 2553  Scenario2_SlowSpeed.node[100].veinsmobility  acceleration  ETV
vector 2554  Scenario2_SlowSpeed.node[100].veinsmobility  co2emission  ETV
vector 2560  Scenario2_SlowSpeed.node[101].veinsmobility  acceleration  ETV
vector 2561  Scenario2_SlowSpeed.node[101].veinsmobility  co2emission  ETV
vector 2567  Scenario2_SlowSpeed.node[102].veinsmobility  acceleration  ETV
vector 2568  Scenario2_SlowSpeed.node[102].veinsmobility  co2emission  ETV
vector 2573  Scenario2_SlowSpeed.node[103].veinsmobility  speed  ETV
vector 2580  Scenario2_SlowSpeed.node[104].veinsmobility  speed  ETV
vector 2587  Scenario2_SlowSpeed.node[105].veinsmobility  speed  ETV
vector 2594  Scenario2_SlowSpeed.node[106].veinsmobility  speed  ETV
vector 2601  Scenario2_SlowSpeed.node[107].veinsmobility  speed  ETV
vector 2648  Scenario2_SlowSpeed.node[114].veinsmobility  posx  ETV
vector 2649  Scenario2_SlowSpeed.node[114].veinsmobility  posy  ETV
vector 2655  Scenario2_SlowSpeed.node[115].veinsmobility  posx  ETV
vector 2656  Scenario2_SlowSpeed.node[115].veinsmobility  posy  ETV
vector 2574  Scenario2_SlowSpeed.node[103].veinsmobility  acceleration  ETV
vector 2575  Scenario2_SlowSpeed.node[103].veinsmobility  co2emission  ETV
vector 2581  Scenario2_SlowSpeed.node[104].veinsmobility  acceleration  ETV
vector 2582  Scenario2_SlowSpeed.node[104].veinsmobility  co2emission  ETV
vector 2588  Scenario2_SlowSpeed.node[105].veinsmobility  acceleration  ETV
vector 2589  Scenario2_SlowSpeed.node[105].veinsmobility  co2emission  ETV
vector 2595  Scenario2_SlowSpeed.node[106].veinsmobility  acceleration  ETV
vector 2596  Scenario2_SlowSpeed.node[106].veinsmobility  co2emission  ETV
vector 2602  Scenario2_SlowSpeed.node[107].veinsmobility  acceleration  ETV
vector 2603  Scenario2_SlowSpeed.node[107].veinsmobility  co2emission  ETV
vector 2608  Scenario2_SlowSpeed.node[108].veinsmobility  speed  ETV
vector 2615  Scenario2_SlowSpeed.node[109].veinsmobility  speed  ETV
vector 2622  Scenario2_SlowSpeed.node[110].veinsmobility  speed  ETV
vector 2629  Scenario2_SlowSpeed.node[111].veinsmobility  speed  ETV
vector 2636  Scenario2_SlowSpeed.node[112].veinsmobility  speed  ETV
vector 2643  Scenario2_SlowSpeed.node[113].veinsmobility  speed  ETV
vector 2662  Scenario2_SlowSpeed.node[116].veinsmobility  posx  ETV
vector 2663  Scenario2_SlowSpeed.node[116].veinsmobility  posy  ETV
vector 2669  Scenario2_SlowSpeed.node[117].veinsmobility  posx  ETV
vector 2670  Scenario2_SlowSpeed.node[117].veinsmobility  posy  ETV
vector 2676  Scenario2_SlowSpeed.node[118].veinsmobility  posx  ETV
vector 2677  Scenario2_SlowSpeed.node[118].veinsmobility  posy  ETV
vector 2683  Scenario2_SlowSpeed.node[119].veinsmobility  posx  ETV
vector 2684  Scenario2_SlowSpeed.node[119].veinsmobility  posy  ETV
vector 2690  Scenario2_SlowSpeed.node[120].veinsmobility  posx  ETV
vector 2691  Scenario2_SlowSpeed.node[120].veinsmobility  posy  ETV
vector 2697  Scenario2_SlowSpeed.node[121].veinsmobility  posx  ETV
vector 2698  Scenario2_SlowSpeed.node[121].veinsmobility  posy  ETV
vector 2704  Scenario2_SlowSpeed.node[122].veinsmobility  posx  ETV
vector 2705  Scenario2_SlowSpeed.node[122].veinsmobility  posy  ETV
vector 2711  Scenario2_SlowSpeed.node[123].veinsmobility  posx  ETV
vector 2712  Scenario2_SlowSpeed.node[123].veinsmobility  posy  ETV
vector 2718  Scenario2_SlowSpeed.node[124].veinsmobility  posx  ETV
vector 2719  Scenario2_SlowSpeed.node[124].veinsmobility  posy  ETV
vector 2609  Scenario2_SlowSpeed.node[108].veinsmobility  acceleration  ETV
vector 2610  Scenario2_SlowSpeed.node[108].veinsmobility  co2emission  ETV
vector 2616  Scenario2_SlowSpeed.node[109].veinsmobility  acceleration  ETV
vector 2617  Scenario2_SlowSpeed.node[109].veinsmobility  co2emission  ETV
vector 2623  Scenario2_SlowSpeed.node[110].veinsmobility  acceleration  ETV
vector 2624  Scenario2_SlowSpeed.node[110].veinsmobility  co2emission  ETV
vector 2630  Scenario2_SlowSpeed.node[111].veinsmobility  acceleration  ETV
vector 2631  Scenario2_SlowSpeed.node[111].veinsmobility  co2emission  ETV
vector 2637  Scenario2_SlowSpeed.node[112].veinsmobility  acceleration  ETV
vector 2638  Scenario2_SlowSpeed.node[112].veinsmobility  co2emission  ETV
vector 2644  Scenario2_SlowSpeed.node[113].veinsmobility  acceleration  ETV
vector 2645  Scenario2_SlowSpeed.node[113].veinsmobility  co2emission  ETV
vector 2650  Scenario2_SlowSpeed.node[114].veinsmobility  speed  ETV
vector 2657  Scenario2_SlowSpeed.node[115].veinsmobility  speed  ETV
vector 2725  Scenario2_SlowSpeed.node[125].veinsmobility  posx  ETV
vector 2726  Scenario2_SlowSpeed.node[125].veinsmobility  posy  ETV
vector 2732  Scenario2_SlowSpeed.node[126].veinsmobility  posx  ETV
vector 2733  Scenario2_SlowSpeed.node[126].veinsmobility  posy  ETV
vector 2739  Scenario2_SlowSpeed.node[127].veinsmobility  posx  ETV
vector 2740  Scenario2_SlowSpeed.node[127].veinsmobility  posy  ETV
vector 2651  Scenario2_SlowSpeed.node[114].veinsmobility  acceleration  ETV
vector 2652  Scenario2_SlowSpeed.node[114].veinsmobility  co2emission  ETV
vector 2658  Scenario2_SlowSpeed.node[115].veinsmobility  acceleration  ETV
vector 2659  Scenario2_SlowSpeed.node[115].veinsmobility  co2emission  ETV
vector 2664  Scenario2_SlowSpeed.node[116].veinsmobility  speed  ETV
vector 2671  Scenario2_SlowSpeed.node[117].veinsmobility  speed  ETV
vector 2678  Scenario2_SlowSpeed.node[118].veinsmobility  speed  ETV
vector 2685  Scenario2_SlowSpeed.node[119].veinsmobility  speed  ETV
vector 2692  Scenario2_SlowSpeed.node[120].veinsmobility  speed  ETV
vector 2699  Scenario2_SlowSpeed.node[121].veinsmobility  speed  ETV
vector 2706  Scenario2_SlowSpeed.node[122].veinsmobility  speed  ETV
vector 2713  Scenario2_SlowSpeed.node[123].veinsmobility  speed  ETV
vector 2720  Scenario2_SlowSpeed.node[124].veinsmobility  speed  ETV
vector 2746  Scenario2_SlowSpeed.node[128].veinsmobility  posx  ETV
vector 2747  Scenario2_SlowSpeed.node[128].veinsmobility  posy  ETV
vector 2753  Scenario2_SlowSpeed.node[129].veinsmobility  posx  ETV
vector 2754  Scenario2_SlowSpeed.node[129].veinsmobility  posy  ETV
vector 2760  Scenario2_SlowSpeed.node[130].veinsmobility  posx  ETV
vector 2761  Scenario2_SlowSpeed.node[130].veinsmobility  posy  ETV
vector 2767  Scenario2_SlowSpeed.node[131].veinsmobility  posx  ETV
vector 2768  Scenario2_SlowSpeed.node[131].veinsmobility  posy  ETV
vector 2774  Scenario2_SlowSpeed.node[132].veinsmobility  posx  ETV
vector 2775  Scenario2_SlowSpeed.node[132].veinsmobility  posy  ETV
vector 2781  Scenario2_SlowSpeed.node[133].veinsmobility  posx  ETV
vector 2782  Scenario2_SlowSpeed.node[133].veinsmobility  posy  ETV
vector 2788  Scenario2_SlowSpeed.node[134].veinsmobility  posx  ETV
vector 2789  Scenario2_SlowSpeed.node[134].veinsmobility  posy  ETV
vector 2795  Scenario2_SlowSpeed.node[135].veinsmobility  posx  ETV
vector 2796  Scenario2_SlowSpeed.node[135].veinsmobility  posy  ETV
vector 2802  Scenario2_SlowSpeed.node[136].veinsmobility  posx  ETV
vector 2803  Scenario2_SlowSpeed.node[136].veinsmobility  posy  ETV
vector 2809  Scenario2_SlowSpeed.node[137].veinsmobility  posx  ETV
vector 2810  Scenario2_SlowSpeed.node[137].veinsmobility  posy  ETV
vector 2816  Scenario2_SlowSpeed.node[138].veinsmobility  posx  ETV
vector 2817  Scenario2_SlowSpeed.node[138].veinsmobility  posy  ETV
vector 2823  Scenario2_SlowSpeed.node[139].veinsmobility  posx  ETV
vector 2824  Scenario2_SlowSpeed.node[139].veinsmobility  posy  ETV
vector 2830  Scenario2_SlowSpeed.node[140].veinsmobility  posx  ETV
vector 2831  Scenario2_SlowSpeed.node[140].veinsmobility  posy  ETV
vector 2665  Scenario2_SlowSpeed.node[116].veinsmobility  acceleration  ETV
vector 2666  Scenario2_SlowSpeed.node[116].veinsmobility  co2emission  ETV
vector 2672  Scenario2_SlowSpeed.node[117].veinsmobility  acceleration  ETV
vector 2673  Scenario2_SlowSpeed.node[117].veinsmobility  co2emission  ETV
vector 2679  Scenario2_SlowSpeed.node[118].veinsmobility  acceleration  ETV
vector 2680  Scenario2_SlowSpeed.node[118].veinsmobility  co2emission  ETV
vector 2686  Scenario2_SlowSpeed.node[119].veinsmobility  acceleration  ETV
vector 2687  Scenario2_SlowSpeed.node[119].veinsmobility  co2emission  ETV
vector 2693  Scenario2_SlowSpeed.node[120].veinsmobility  acceleration  ETV
vector 2694  Scenario2_SlowSpeed.node[120].veinsmobility  co2emission  ETV
vector 2700  Scenario2_SlowSpeed.node[121].veinsmobility  acceleration  ETV
vector 2701  Scenario2_SlowSpeed.node[121].veinsmobility  co2emission  ETV
vector 2707  Scenario2_SlowSpeed.node[122].veinsmobility  acceleration  ETV
vector 2708  Scenario2_SlowSpeed.node[122].veinsmobility  co2emission  ETV
vector 2714  Scenario2_SlowSpeed.node[123].veinsmobility  acceleration  ETV
vector 2715  Scenario2_SlowSpeed.node[123].veinsmobility  co2emission  ETV
vector 2721  Scenario2_SlowSpeed.node[124].veinsmobility  acceleration  ETV
vector 2722  Scenario2_SlowSpeed.node[124].veinsmobility  co2emission  ETV
vector 2727  Scenario2_SlowSpeed.node[125].veinsmobility  speed  ETV
vector 2734  Scenario2_SlowSpeed.node[126].veinsmobility  speed  ETV
vector 2741  Scenario2_SlowSpeed.node[127].veinsmobility  speed  ETV
vector 2837  Scenario2_SlowSpeed.node[141].veinsmobility  posx  ETV
vector 2838  Scenario2_SlowSpeed.node[141].veinsmobility  posy  ETV
vector 2844  Scenario2_SlowSpeed.node[142].veinsmobility  posx  ETV
vector 2845  Scenario2_SlowSpeed.node[142].veinsmobility  posy  ETV
vector 2851  Scenario2_SlowSpeed.node[143].veinsmobility  posx  ETV
vector 2852  Scenario2_SlowSpeed.node[143].veinsmobility  posy  ETV
vector 2858  Scenario2_SlowSpeed.node[144].veinsmobility  posx  ETV
vector 2859  Scenario2_SlowSpeed.node[144].veinsmobility  posy  ETV
vector 2865  Scenario2_SlowSpeed.node[145].veinsmobility  posx  ETV
vector 2866  Scenario2_SlowSpeed.node[145].veinsmobility  posy  ETV
vector 2872  Scenario2_SlowSpeed.node[146].veinsmobility  posx  ETV
vector 2873  Scenario2_SlowSpeed.node[146].veinsmobility  posy  ETV
vector 2728  Scenario2_SlowSpeed.node[125].veinsmobility  acceleration  ETV
vector 2729  Scenario2_SlowSpeed.node[125].veinsmobility  co2emission  ETV
vector 2735  Scenario2_SlowSpeed.node[126].veinsmobility  acceleration  ETV
vector 2736  Scenario2_SlowSpeed.node[126].veinsmobility  co2emission  ETV
vector 2742  Scenario2_SlowSpeed.node[127].veinsmobility  acceleration  ETV
vector 2743  Scenario2_SlowSpeed.node[127].veinsmobility  co2emission  ETV
vector 2748  Scenario2_SlowSpeed.node[128].veinsmobility  speed  ETV
vector 2755  Scenario2_SlowSpeed.node[129].veinsmobility  speed  ETV
vector 2762  Scenario2_SlowSpeed.node[130].veinsmobility  speed  ETV
vector 2769  Scenario2_SlowSpeed.node[131].veinsmobility  speed  ETV
vector 2776  Scenario2_SlowSpeed.node[132].veinsmobility  speed  ETV
vector 2783  Scenario2_SlowSpeed.node[133].veinsmobility  speed  ETV
vector 2790  Scenario2_SlowSpeed.node[134].veinsmobility  speed  ETV
vector 2797  Scenario2_SlowSpeed.node[135].veinsmobility  speed  ETV
vector 2804  Scenario2_SlowSpeed.node[136].veinsmobility  speed  ETV
vector 2811  Scenario2_SlowSpeed.node[137].veinsmobility  speed  ETV
vector 2818  Scenario2_SlowSpeed.node[138].veinsmobility  speed  ETV
vector 2825  Scenario2_SlowSpeed.node[139].veinsmobility  speed  ETV
vector 2832  Scenario2_SlowSpeed.node[140].veinsmobility  speed  ETV
vector 2879  Scenario2_SlowSpeed.node[147].veinsmobility  posx  ETV
vector 2880  Scenario2_SlowSpeed.node[147].veinsmobility  posy  ETV
vector 2886  Scenario2_SlowSpeed.node[148].veinsmobility  posx  ETV
vector 2887  Scenario2_SlowSpeed.node[148].veinsmobility  posy  ETV
vector 2893  Scenario2_SlowSpeed.node[149].veinsmobility  posx  ETV
vector 2894  Scenario2_SlowSpeed.node[149].veinsmobility  posy  ETV
vector 2900  Scenario2_SlowSpeed.node[150].veinsmobility  posx  ETV
vector 2901  Scenario2_SlowSpeed.node[150].veinsmobility  posy  ETV
vector 2907  Scenario2_SlowSpeed.node[151].veinsmobility  posx  ETV
vector 2908  Scenario2_SlowSpeed.node[151].veinsmobility  posy  ETV
vector 2749  Scenario2_SlowSpeed.node[128].veinsmobility  acceleration  ETV
vector 2750  Scenario2_SlowSpeed.node[128].veinsmobility  co2emission  ETV
vector 2756  Scenario2_SlowSpeed.node[129].veinsmobility  acceleration  ETV
vector 2757  Scenario2_SlowSpeed.node[129].veinsmobility  co2emission  ETV
vector 2763  Scenario2_SlowSpeed.node[130].veinsmobility  acceleration  ETV
vector 2764  Scenario2_SlowSpeed.node[130].veinsmobility  co2emission  ETV
vector 2770  Scenario2_SlowSpeed.node[131].veinsmobility  acceleration  ETV
vector 2771  Scenario2_SlowSpeed.node[131].veinsmobility  co2emission  ETV
vector 2777  Scenario2_SlowSpeed.node[132].veinsmobility  acceleration  ETV
vector 2778  Scenario2_SlowSpeed.node[132].veinsmobility  co2emission  ETV
vector 2784  Scenario2_SlowSpeed.node[133].veinsmobility  acceleration  ETV
vector 2785  Scenario2_SlowSpeed.node[133].veinsmobility  co2emission  ETV
vector 2791  Scenario2_SlowSpeed.node[134].veinsmobility  acceleration  ETV
vector 2792  Scenario2_SlowSpeed.node[134].veinsmobility  co2emission  ETV
vector 2798  Scenario2_SlowSpeed.node[135].veinsmobility  acceleration  ETV
vector 2799  Scenario2_SlowSpeed.node[135].veinsmobility  co2emission  ETV
vector 2805  Scenario2_SlowSpeed.node[136].veinsmobility  acceleration  ETV
vector 2806  Scenario2_SlowSpeed.node[136].veinsmobility  co2emission  ETV
vector 2812  Scenario2_SlowSpeed.node[137].veinsmobility  acceleration  ETV
vector 2813  Scenario2_SlowSpeed.node[137].veinsmobility  co2emission  ETV
vector 2819  Scenario2_SlowSpeed.node[138].veinsmobility  acceleration  ETV
vector 2820  Scenario2_SlowSpeed.node[138].veinsmobility  co2emission  ETV
vector 2826  Scenario2_SlowSpeed.node[139].veinsmobility  acceleration  ETV
vector 2827  Scenario2_SlowSpeed.node[139].veinsmobility  co2emission  ETV
vector 2833  Scenario2_SlowSpeed.node[140].veinsmobility  acceleration  ETV
vector 2834  Scenario2_SlowSpeed.node[140].veinsmobility  co2emission  ETV
vector 2839  Scenario2_SlowSpeed.node[141].veinsmobility  speed  ETV
vector 2846  Scenario2_SlowSpeed.node[142].veinsmobility  speed  ETV
vector 2853  Scenario2_SlowSpeed.node[143].veinsmobility  speed  ETV
vector 2860  Scenario2_SlowSpeed.node[144].veinsmobility  speed  ETV
vector 2867  Scenario2_SlowSpeed.node[145].veinsmobility  speed  ETV
vector 2874  Scenario2_SlowSpeed.node[146].veinsmobility  speed  ETV
vector 2914  Scenario2_SlowSpeed.node[152].veinsmobility  posx  ETV
vector 2915  Scenario2_SlowSpeed.node[152].veinsmobility  posy  ETV
vector 2921  Scenario2_SlowSpeed.node[153].veinsmobility  posx  ETV
vector 2922  Scenario2_SlowSpeed.node[153].veinsmobility  posy  ETV
vector 2928  Scenario2_SlowSpeed.node[154].veinsmobility  posx  ETV
vector 2929  Scenario2_SlowSpeed.node[154].veinsmobility  posy  ETV
vector 2935  Scenario2_SlowSpeed.node[155].veinsmobility  posx  ETV
vector 2936  Scenario2_SlowSpeed.node[155].veinsmobility  posy  ETV
vector 2942  Scenario2_SlowSpeed.node[156].veinsmobility  posx  ETV
vector 2943  Scenario2_SlowSpeed.node[156].veinsmobility  posy  ETV
vector 2840  Scenario2_SlowSpeed.node[141].veinsmobility  acceleration  ETV
vector 2841  Scenario2_SlowSpeed.node[141].veinsmobility  co2emission  ETV
vector 2847  Scenario2_SlowSpeed.node[142].veinsmobility  acceleration  ETV
vector 2848  Scenario2_SlowSpeed.node[142].veinsmobility  co2emission  ETV
vector 2854  Scenario2_SlowSpeed.node[143].veinsmobility  acceleration  ETV
vector 2855  Scenario2_SlowSpeed.node[143].veinsmobility  co2emission  ETV
vector 2861  Scenario2_SlowSpeed.node[144].veinsmobility  acceleration  ETV
vector 2862  Scenario2_SlowSpeed.node[144].veinsmobility  co2emission  ETV
vector 2868  Scenario2_SlowSpeed.node[145].veinsmobility  acceleration  ETV
vector 2869  Scenario2_SlowSpeed.node[145].veinsmobility  co2emission  ETV
vector 2875  Scenario2_SlowSpeed.node[146].veinsmobility  acceleration  ETV
vector 2876  Scenario2_SlowSpeed.node[146].veinsmobility  co2emission  ETV
vector 2881  Scenario2_SlowSpeed.node[147].veinsmobility  speed  ETV
vector 2888  Scenario2_SlowSpeed.node[148].veinsmobility  speed  ETV
vector 2895  Scenario2_SlowSpeed.node[149].veinsmobility  speed  ETV
vector 2902  Scenario2_SlowSpeed.node[150].veinsmobility  speed  ETV
vector 2909  Scenario2_SlowSpeed.node[151].veinsmobility  speed  ETV
vector 2949  Scenario2_SlowSpeed.node[157].veinsmobility  posx  ETV
vector 2950  Scenario2_SlowSpeed.node[157].veinsmobility  posy  ETV
vector 2956  Scenario2_SlowSpeed.node[158].veinsmobility  posx  ETV
vector 2957  Scenario2_SlowSpeed.node[158].veinsmobility  posy  ETV
vector 2963  Scenario2_SlowSpeed.node[159].veinsmobility  posx  ETV
vector 2964  Scenario2_SlowSpeed.node[159].veinsmobility  posy  ETV
vector 2970  Scenario2_SlowSpeed.node[160].veinsmobility  posx  ETV
vector 2971  Scenario2_SlowSpeed.node[160].veinsmobility  posy  ETV
vector 2882  Scenario2_SlowSpeed.node[147].veinsmobility  acceleration  ETV
vector 2883  Scenario2_SlowSpeed.node[147].veinsmobility  co2emission  ETV
vector 2889  Scenario2_SlowSpeed.node[148].veinsmobility  acceleration  ETV
vector 2890  Scenario2_SlowSpeed.node[148].veinsmobility  co2emission  ETV
vector 2896  Scenario2_SlowSpeed.node[149].veinsmobility  acceleration  ETV
vector 2897  Scenario2_SlowSpeed.node[149].veinsmobility  co2emission  ETV
vector 2903  Scenario2_SlowSpeed.node[150].veinsmobility  acceleration  ETV
vector 2904  Scenario2_SlowSpeed.node[150].veinsmobility  co2emission  ETV
vector 2910  Scenario2_SlowSpeed.node[151].veinsmobility  acceleration  ETV
vector 2911  Scenario2_SlowSpeed.node[151].veinsmobility  co2emission  ETV
vector 2916  Scenario2_SlowSpeed.node[152].veinsmobility  speed  ETV
vector 2923  Scenario2_SlowSpeed.node[153].veinsmobility  speed  ETV
vector 2930  Scenario2_SlowSpeed.node[154].veinsmobility  speed  ETV
vector 2937  Scenario2_SlowSpeed.node[155].veinsmobility  speed  ETV
vector 2944  Scenario2_SlowSpeed.node[156].veinsmobility  speed  ETV
vector 2977  Scenario2_SlowSpeed.node[161].veinsmobility  posx  ETV
vector 2978  Scenario2_SlowSpeed.node[161].veinsmobility  posy  ETV
vector 2984  Scenario2_SlowSpeed.node[162].veinsmobility  posx  ETV
vector 2985  Scenario2_SlowSpeed.node[162].veinsmobility  posy  ETV
vector 2991  Scenario2_SlowSpeed.node[163].veinsmobility  posx  ETV
vector 2992  Scenario2_SlowSpeed.node[163].veinsmobility  posy  ETV
vector 2917  Scenario2_SlowSpeed.node[152].veinsmobility  acceleration  ETV
vector 2918  Scenario2_SlowSpeed.node[152].veinsmobility  co2emission  ETV
vector 2924  Scenario2_SlowSpeed.node[153].veinsmobility  acceleration  ETV
vector 2925  Scenario2_SlowSpeed.node[153].veinsmobility  co2emission  ETV
vector 2931  Scenario2_SlowSpeed.node[154].veinsmobility  acceleration  ETV
vector 2932  Scenario2_SlowSpeed.node[154].veinsmobility  co2emission  ETV
vector 2938  Scenario2_SlowSpeed.node[155].veinsmobility  acceleration  ETV
vector 2939  Scenario2_SlowSpeed.node[155].veinsmobility  co2emission  ETV
vector 2945  Scenario2_SlowSpeed.node[156].veinsmobility  acceleration  ETV
vector 2946  Scenario2_SlowSpeed.node[156].veinsmobility  co2emission  ETV
vector 2951  Scenario2_SlowSpeed.node[157].veinsmobility  speed  ETV
vector 2958  Scenario2_SlowSpeed.node[158].veinsmobility  speed  ETV
vector 2965  Scenario2_SlowSpeed.node[159].veinsmobility  speed  ETV
vector 2972  Scenario2_SlowSpeed.node[160].veinsmobility  speed  ETV
vector 2998  Scenario2_SlowSpeed.node[164].veinsmobility  posx  ETV
vector 2999  Scenario2_SlowSpeed.node[164].veinsmobility  posy  ETV
vector 3005  Scenario2_SlowSpeed.node[165].veinsmobility  posx  ETV
vector 3006  Scenario2_SlowSpeed.node[165].veinsmobility  posy  ETV
vector 3012  Scenario2_SlowSpeed.node[166].veinsmobility  posx  ETV
vector 3013  Scenario2_SlowSpeed.node[166].veinsmobility  posy  ETV
vector 3019  Scenario2_SlowSpeed.node[167].veinsmobility  posx  ETV
vector 3020  Scenario2_SlowSpeed.node[167].veinsmobility  posy  ETV
vector 3026  Scenario2_SlowSpeed.node[168].veinsmobility  posx  ETV
vector 3027  Scenario2_SlowSpeed.node[168].veinsmobility  posy  ETV
vector 3033  Scenario2_SlowSpeed.node[169].veinsmobility  posx  ETV
vector 3034  Scenario2_SlowSpeed.node[169].veinsmobility  posy  ETV
vector 3040  Scenario2_SlowSpeed.node[170].veinsmobility  posx  ETV
vector 3041  Scenario2_SlowSpeed.node[170].veinsmobility  posy  ETV
vector 3047  Scenario2_SlowSpeed.node[171].veinsmobility  posx  ETV
vector 3048  Scenario2_SlowSpeed.node[171].veinsmobility  posy  ETV
vector 2952  Scenario2_SlowSpeed.node[157].veinsmobility  acceleration  ETV
vector 2953  Scenario2_SlowSpeed.node[157].veinsmobility  co2emission  ETV
vector 2959  Scenario2_SlowSpeed.node[158].veinsmobility  acceleration  ETV
vector 2960  Scenario2_SlowSpeed.node[158].veinsmobility  co2emission  ETV
vector 2966  Scenario2_SlowSpeed.node[159].veinsmobility  acceleration  ETV
vector 2967  Scenario2_SlowSpeed.node[159].veinsmobility  co2emission  ETV
vector 2973  Scenario2_SlowSpeed.node[160].veinsmobility  acceleration  ETV
vector 2974  Scenario2_SlowSpeed.node[160].veinsmobility  co2emission  ETV
vector 2979  Scenario2_SlowSpeed.node[161].veinsmobility  speed  ETV
vector 2986  Scenario2_SlowSpeed.node[162].veinsmobility  speed  ETV
vector 2993  Scenario2_SlowSpeed.node[163].veinsmobility  speed  ETV
vector 3054  Scenario2_SlowSpeed.node[172].veinsmobility  posx  ETV
vector 3055  Scenario2_SlowSpeed.node[172].veinsmobility  posy  ETV
vector 3061  Scenario2_SlowSpeed.node[173].veinsmobility  posx  ETV
vector 3062  Scenario2_SlowSpeed.node[173].veinsmobility  posy  ETV
vector 2980  Scenario2_SlowSpeed.node[161].veinsmobility  acceleration  ETV
vector 2981  Scenario2_SlowSpeed.node[161].veinsmobility  co2emission  ETV
vector 2987  Scenario2_SlowSpeed.node[162].veinsmobility  acceleration  ETV
vector 2988  Scenario2_SlowSpeed.node[162].veinsmobility  co2emission  ETV
vector 2994  Scenario2_SlowSpeed.node[163].veinsmobility  acceleration  ETV
vector 2995  Scenario2_SlowSpeed.node[163].veinsmobility  co2emission  ETV
vector 3000  Scenario2_SlowSpeed.node[164].veinsmobility  speed  ETV
vector 3007  Scenario2_SlowSpeed.node[165].veinsmobility  speed  ETV
vector 3014  Scenario2_SlowSpeed.node[166].veinsmobility  speed  ETV
vector 3021  Scenario2_SlowSpeed.node[167].veinsmobility  speed  ETV
vector 3028  Scenario2_SlowSpeed.node[168].veinsmobility  speed  ETV
vector 3035  Scenario2_SlowSpeed.node[169].veinsmobility  speed  ETV
vector 3042  Scenario2_SlowSpeed.node[170].veinsmobility  speed  ETV
vector 3049  Scenario2_SlowSpeed.node[171].veinsmobility  speed  ETV
vector 3068  Scenario2_SlowSpeed.node[174].veinsmobility  posx  ETV
vector 3069  Scenario2_SlowSpeed.node[174].veinsmobility  posy  ETV
vector 3075  Scenario2_SlowSpeed.node[175].veinsmobility  posx  ETV
vector 3076  Scenario2_SlowSpeed.node[175].veinsmobility  posy  ETV
vector 3082  Scenario2_SlowSpeed.node[176].veinsmobility  posx  ETV
vector 3083  Scenario2_SlowSpeed.node[176].veinsmobility  posy  ETV
vector 3001  Scenario2_SlowSpeed.node[164].veinsmobility  acceleration  ETV
vector 3002  Scenario2_SlowSpeed.node[164].veinsmobility  co2emission  ETV
vector 3008  Scenario2_SlowSpeed.node[165].veinsmobility  acceleration  ETV
vector 3009  Scenario2_SlowSpeed.node[165].veinsmobility  co2emission  ETV
vector 3015  Scenario2_SlowSpeed.node[166].veinsmobility  acceleration  ETV
vector 3016  Scenario2_SlowSpeed.node[166].veinsmobility  co2emission  ETV
vector 3022  Scenario2_SlowSpeed.node[167].veinsmobility  acceleration  ETV
vector 3023  Scenario2_SlowSpeed.node[167].veinsmobility  co2emission  ETV
vector 3029  Scenario2_SlowSpeed.node[168].veinsmobility  acceleration  ETV
vector 3030  Scenario2_SlowSpeed.node[168].veinsmobility  co2emission  ETV
vector 3036  Scenario2_SlowSpeed.node[169].veinsmobility  acceleration  ETV
vector 3037  Scenario2_SlowSpeed.node[169].veinsmobility  co2emission  ETV
vector 3043  Scenario2_SlowSpeed.node[170].veinsmobility  acceleration  ETV
vector 3044  Scenario2_SlowSpeed.node[170].veinsmobility  co2emission  ETV
vector 3050  Scenario2_SlowSpeed.node[171].veinsmobility  acceleration  ETV
vector 3051  Scenario2_SlowSpeed.node[171].veinsmobility  co2emission  ETV
vector 3056  Scenario2_SlowSpeed.node[172].veinsmobility  speed  ETV
vector 3063  Scenario2_SlowSpeed.node[173].veinsmobility  speed  ETV
vector 3089  Scenario2_SlowSpeed.node[177].veinsmobility  posx  ETV
vector 3090  Scenario2_SlowSpeed.node[177].veinsmobility  posy  ETV
vector 3096  Scenario2_SlowSpeed.node[178].veinsmobility  posx  ETV
vector 3097  Scenario2_SlowSpeed.node[178].veinsmobility  posy  ETV
vector 3103  Scenario2_SlowSpeed.node[179].veinsmobility  posx  ETV
vector 3104  Scenario2_SlowSpeed.node[179].veinsmobility  posy  ETV
vector 3110  Scenario2_SlowSpeed.node[180].veinsmobility  posx  ETV
vector 3111  Scenario2_SlowSpeed.node[180].veinsmobility  posy  ETV
vector 3117  Scenario2_SlowSpeed.node[181].veinsmobility  posx  ETV
vector 3118  Scenario2_SlowSpeed.node[181].veinsmobility  posy  ETV
vector 3124  Scenario2_SlowSpeed.node[182].veinsmobility  posx  ETV
vector 3125  Scenario2_SlowSpeed.node[182].veinsmobility  posy  ETV
vector 3131  Scenario2_SlowSpeed.node[183].veinsmobility  posx  ETV
vector 3132  Scenario2_SlowSpeed.node[183].veinsmobility  posy  ETV
vector 3138  Scenario2_SlowSpeed.node[184].veinsmobility  posx  ETV
vector 3139  Scenario2_SlowSpeed.node[184].veinsmobility  posy  ETV
vector 3145  Scenario2_SlowSpeed.node[185].veinsmobility  posx  ETV
vector 3146  Scenario2_SlowSpeed.node[185].veinsmobility  posy  ETV
vector 3057  Scenario2_SlowSpeed.node[172].veinsmobility  acceleration  ETV
vector 3058  Scenario2_SlowSpeed.node[172].veinsmobility  co2emission  ETV
vector 3064  Scenario2_SlowSpeed.node[173].veinsmobility  acceleration  ETV
vector 3065  Scenario2_SlowSpeed.node[173].veinsmobility  co2emission  ETV
vector 3070  Scenario2_SlowSpeed.node[174].veinsmobility  speed  ETV
vector 3077  Scenario2_SlowSpeed.node[175].veinsmobility  speed  ETV
vector 3084  Scenario2_SlowSpeed.node[176].veinsmobility  speed  ETV
vector 3152  Scenario2_SlowSpeed.node[186].veinsmobility  posx  ETV
vector 3153  Scenario2_SlowSpeed.node[186].veinsmobility  posy  ETV
vector 3159  Scenario2_SlowSpeed.node[187].veinsmobility  posx  ETV
vector 3160  Scenario2_SlowSpeed.node[187].veinsmobility  posy  ETV
vector 3071  Scenario2_SlowSpeed.node[174].veinsmobility  acceleration  ETV
vector 3072  Scenario2_SlowSpeed.node[174].veinsmobility  co2emission  ETV
vector 3078  Scenario2_SlowSpeed.node[175].veinsmobility  acceleration  ETV
vector 3079  Scenario2_SlowSpeed.node[175].veinsmobility  co2emission  ETV
vector 3085  Scenario2_SlowSpeed.node[176].veinsmobility  acceleration  ETV
vector 3086  Scenario2_SlowSpeed.node[176].veinsmobility  co2emission  ETV
vector 3091  Scenario2_SlowSpeed.node[177].veinsmobility  speed  ETV
vector 3098  Scenario2_SlowSpeed.node[178].veinsmobility  speed  ETV
vector 3105  Scenario2_SlowSpeed.node[179].veinsmobility  speed  ETV
vector 3112  Scenario2_SlowSpeed.node[180].veinsmobility  speed  ETV
vector 3119  Scenario2_SlowSpeed.node[181].veinsmobility  speed  ETV
vector 3126  Scenario2_SlowSpeed.node[182].veinsmobility  speed  ETV
vector 3133  Scenario2_SlowSpeed.node[183].veinsmobility  speed  ETV
vector 3140  Scenario2_SlowSpeed.node[184].veinsmobility  speed  ETV
vector 3147  Scenario2_SlowSpeed.node[185].veinsmobility  speed  ETV
vector 3166  Scenario2_SlowSpeed.node[188].veinsmobility  posx  ETV
vector 3167  Scenario2_SlowSpeed.node[188].veinsmobility  posy  ETV
vector 3173  Scenario2_SlowSpeed.node[189].veinsmobility  posx  ETV
vector 3174  Scenario2_SlowSpeed.node[189].veinsmobility  posy  ETV
vector 3180  Scenario2_SlowSpeed.node[190].veinsmobility  posx  ETV
vector 3181  Scenario2_SlowSpeed.node[190].veinsmobility  posy  ETV
vector 3092  Scenario2_SlowSpeed.node[177].veinsmobility  acceleration  ETV
vector 3093  Scenario2_SlowSpeed.node[177].veinsmobility  co2emission  ETV
vector 3099  Scenario2_SlowSpeed.node[178].veinsmobility  acceleration  ETV
vector 3100  Scenario2_SlowSpeed.node[178].veinsmobility  co2emission  ETV
vector 3106  Scenario2_SlowSpeed.node[179].veinsmobility  acceleration  ETV
vector 3107  Scenario2_SlowSpeed.node[179].veinsmobility  co2emission  ETV
vector 3113  Scenario2_SlowSpeed.node[180].veinsmobility  acceleration  ETV
vector 3114  Scenario2_SlowSpeed.node[180].veinsmobility  co2emission  ETV
vector 3120  Scenario2_SlowSpeed.node[181].veinsmobility  acceleration  ETV
vector 3121  Scenario2_SlowSpeed.node[181].veinsmobility  co2emission  ETV
vector 3127  Scenario2_SlowSpeed.node[182].veinsmobility  acceleration  ETV
vector 3128  Scenario2_SlowSpeed.node[182].veinsmobility  co2emission  ETV
vector 3134  Scenario2_SlowSpeed.node[183].veinsmobility  acceleration  ETV
vector 3135  Scenario2_SlowSpeed.node[183].veinsmobility  co2emission  ETV
vector 3141  Scenario2_SlowSpeed.node[184].veinsmobility  acceleration  ETV
vector 3142  Scenario2_SlowSpeed.node[184].veinsmobility  co2emission  ETV
vector 3148  Scenario2_SlowSpeed.node[185].veinsmobility  acceleration  ETV
vector 3149  Scenario2_SlowSpeed.node[185].veinsmobility  co2emission  ETV
vector 3154  Scenario2_SlowSpeed.node[186].veinsmobility  speed  ETV
vector 3161  Scenario2_SlowSpeed.node[187].veinsmobility  speed  ETV
vector 3187  Scenario2_SlowSpeed.node[191].veinsmobility  posx  ETV
vector 3188  Scenario2_SlowSpeed.node[191].veinsmobility  posy  ETV
vector 3194  Scenario2_SlowSpeed.node[192].veinsmobility  posx  ETV
vector 3195  Scenario2_SlowSpeed.node[192].veinsmobility  posy  ETV
vector 3201  Scenario2_SlowSpeed.node[193].veinsmobility  posx  ETV
vector 3202  Scenario2_SlowSpeed.node[193].veinsmobility  posy  ETV
vector 3208  Scenario2_SlowSpeed.node[194].veinsmobility  posx  ETV
vector 3209  Scenario2_SlowSpeed.node[194].veinsmobility  posy  ETV
vector 3215  Scenario2_SlowSpeed.node[195].veinsmobility  posx  ETV
vector 3216  Scenario2_SlowSpeed.node[195].veinsmobility  posy  ETV
vector 3222  Scenario2_SlowSpeed.node[196].veinsmobility  posx  ETV
vector 3223  Scenario2_SlowSpeed.node[196].veinsmobility  posy  ETV
vector 3155  Scenario2_SlowSpeed.node[186].veinsmobility  acceleration  ETV
vector 3156  Scenario2_SlowSpeed.node[186].veinsmobility  co2emission  ETV
vector 3162  Scenario2_SlowSpeed.node[187].veinsmobility  acceleration  ETV
vector 3163  Scenario2_SlowSpeed.node[187].veinsmobility  co2emission  ETV
vector 3168  Scenario2_SlowSpeed.node[188].veinsmobility  speed  ETV
vector 3175  Scenario2_SlowSpeed.node[189].veinsmobility  speed  ETV
vector 3182  Scenario2_SlowSpeed.node[190].veinsmobility  speed  ETV
vector 3229  Scenario2_SlowSpeed.node[197].veinsmobility  posx  ETV
vector 3230  Scenario2_SlowSpeed.node[197].veinsmobility  posy  ETV
vector 3236  Scenario2_SlowSpeed.node[198].veinsmobility  posx  ETV
vector 3237  Scenario2_SlowSpeed.node[198].veinsmobility  posy  ETV
vector 3243  Scenario2_SlowSpeed.node[199].veinsmobility  posx  ETV
vector 3244  Scenario2_SlowSpeed.node[199].veinsmobility  posy  ETV
vector 3250  Scenario2_SlowSpeed.node[200].veinsmobility  posx  ETV
vector 3251  Scenario2_SlowSpeed.node[200].veinsmobility  posy  ETV
vector 3169  Scenario2_SlowSpeed.node[188].veinsmobility  acceleration  ETV
vector 3170  Scenario2_SlowSpeed.node[188].veinsmobility  co2emission  ETV
vector 3176  Scenario2_SlowSpeed.node[189].veinsmobility  acceleration  ETV
vector 3177  Scenario2_SlowSpeed.node[189].veinsmobility  co2emission  ETV
vector 3183  Scenario2_SlowSpeed.node[190].veinsmobility  acceleration  ETV
vector 3184  Scenario2_SlowSpeed.node[190].veinsmobility  co2emission  ETV
vector 3189  Scenario2_SlowSpeed.node[191].veinsmobility  speed  ETV
vector 3196  Scenario2_SlowSpeed.node[192].veinsmobility  speed  ETV
vector 3203  Scenario2_SlowSpeed.node[193].veinsmobility  speed  ETV
vector 3210  Scenario2_SlowSpeed.node[194].veinsmobility  speed  ETV
vector 3217  Scenario2_SlowSpeed.node[195].veinsmobility  speed  ETV
vector 3224  Scenario2_SlowSpeed.node[196].veinsmobility  speed  ETV
vector 3257  Scenario2_SlowSpeed.node[201].veinsmobility  posx  ETV
vector 3258  Scenario2_SlowSpeed.node[201].veinsmobility  posy  ETV
vector 3264  Scenario2_SlowSpeed.node[202].veinsmobility  posx  ETV
vector 3265  Scenario2_SlowSpeed.node[202].veinsmobility  posy  ETV
vector 3271  Scenario2_SlowSpeed.node[203].veinsmobility  posx  ETV
vector 3272  Scenario2_SlowSpeed.node[203].veinsmobility  posy  ETV
vector 3278  Scenario2_SlowSpeed.node[204].veinsmobility  posx  ETV
vector 3279  Scenario2_SlowSpeed.node[204].veinsmobility  posy  ETV
vector 3285  Scenario2_SlowSpeed.node[205].veinsmobility  posx  ETV
vector 3286  Scenario2_SlowSpeed.node[205].veinsmobility  posy  ETV
vector 3190  Scenario2_SlowSpeed.node[191].veinsmobility  acceleration  ETV
vector 3191  Scenario2_SlowSpeed.node[191].veinsmobility  co2emission  ETV
vector 3197  Scenario2_SlowSpeed.node[192].veinsmobility  acceleration  ETV
vector 3198  Scenario2_SlowSpeed.node[192].veinsmobility  co2emission  ETV
vector 3204  Scenario2_SlowSpeed.node[193].veinsmobility  acceleration  ETV
vector 3205  Scenario2_SlowSpeed.node[193].veinsmobility  co2emission  ETV
vector 3211  Scenario2_SlowSpeed.node[194].veinsmobility  acceleration  ETV
vector 3212  Scenario2_SlowSpeed.node[194].veinsmobility  co2emission  ETV
vector 3218  Scenario2_SlowSpeed.node[195].veinsmobility  acceleration  ETV
vector 3219  Scenario2_SlowSpeed.node[195].veinsmobility  co2emission  ETV
vector 3225  Scenario2_SlowSpeed.node[196].veinsmobility  acceleration  ETV
vector 3226  Scenario2_SlowSpeed.node[196].veinsmobility  co2emission  ETV
vector 3231  Scenario2_SlowSpeed.node[197].veinsmobility  speed  ETV
vector 3238  Scenario2_SlowSpeed.node[198].veinsmobility  speed  ETV
vector 3245  Scenario2_SlowSpeed.node[199].veinsmobility  speed  ETV
vector 3252  Scenario2_SlowSpeed.node[200].veinsmobility  speed  ETV
vector 3292  Scenario2_SlowSpeed.node[206].veinsmobility  posx  ETV
vector 3293  Scenario2_SlowSpeed.node[206].veinsmobility  posy  ETV
vector 3299  Scenario2_SlowSpeed.node[207].veinsmobility  posx  ETV
vector 3300  Scenario2_SlowSpeed.node[207].veinsmobility  posy  ETV
vector 3306  Scenario2_SlowSpeed.node[208].veinsmobility  posx  ETV
vector 3307  Scenario2_SlowSpeed.node[208].veinsmobility  posy  ETV
vector 3313  Scenario2_SlowSpeed.node[209].veinsmobility  posx  ETV
vector 3314  Scenario2_SlowSpeed.node[209].veinsmobility  posy  ETV
vector 3320  Scenario2_SlowSpeed.node[210].veinsmobility  posx  ETV
vector 3321  Scenario2_SlowSpeed.node[210].veinsmobility  posy  ETV
vector 3327  Scenario2_SlowSpeed.node[211].veinsmobility  posx  ETV
vector 3328  Scenario2_SlowSpeed.node[211].veinsmobility  posy  ETV
vector 3334  Scenario2_SlowSpeed.node[212].veinsmobility  posx  ETV
vector 3335  Scenario2_SlowSpeed.node[212].veinsmobility  posy  ETV
vector 3341  Scenario2_SlowSpeed.node[213].veinsmobility  posx  ETV
vector 3342  Scenario2_SlowSpeed.node[213].veinsmobility  posy  ETV
vector 3232  Scenario2_SlowSpeed.node[197].veinsmobility  acceleration  ETV
vector 3233  Scenario2_SlowSpeed.node[197].veinsmobility  co2emission  ETV
vector 3239  Scenario2_SlowSpeed.node[198].veinsmobility  acceleration  ETV
vector 3240  Scenario2_SlowSpeed.node[198].veinsmobility  co2emission  ETV
vector 3246  Scenario2_SlowSpeed.node[199].veinsmobility  acceleration  ETV
vector 3247  Scenario2_SlowSpeed.node[199].veinsmobility  co2emission  ETV
vector 3253  Scenario2_SlowSpeed.node[200].veinsmobility  acceleration  ETV
vector 3254  Scenario2_SlowSpeed.node[200].veinsmobility  co2emission  ETV
vector 3259  Scenario2_SlowSpeed.node[201].veinsmobility  speed  ETV
vector 3266  Scenario2_SlowSpeed.node[202].veinsmobility  speed  ETV
vector 3273  Scenario2_SlowSpeed.node[203].veinsmobility  speed  ETV
vector 3280  Scenario2_SlowSpeed.node[204].veinsmobility  speed  ETV
vector 3287  Scenario2_SlowSpeed.node[205].veinsmobility  speed  ETV
vector 3348  Scenario2_SlowSpeed.node[214].veinsmobility  posx  ETV
vector 3349  Scenario2_SlowSpeed.node[214].veinsmobility  posy  ETV
vector 3260  Scenario2_SlowSpeed.node[201].veinsmobility  acceleration  ETV
vector 3261  Scenario2_SlowSpeed.node[201].veinsmobility  co2emission  ETV
vector 3267  Scenario2_SlowSpeed.node[202].veinsmobility  acceleration  ETV
vector 3268  Scenario2_SlowSpeed.node[202].veinsmobility  co2emission  ETV
vector 3274  Scenario2_SlowSpeed.node[203].veinsmobility  acceleration  ETV
vector 3275  Scenario2_SlowSpeed.node[203].veinsmobility  co2emission  ETV
vector 3281  Scenario2_SlowSpeed.node[204].veinsmobility  acceleration  ETV
vector 3282  Scenario2_SlowSpeed.node[204].veinsmobility  co2emission  ETV
vector 3288  Scenario2_SlowSpeed.node[205].veinsmobility  acceleration  ETV
vector 3289  Scenario2_SlowSpeed.node[205].veinsmobility  co2emission  ETV
vector 3294  Scenario2_SlowSpeed.node[206].veinsmobility  speed  ETV
vector 3301  Scenario2_SlowSpeed.node[207].veinsmobility  speed  ETV
vector 3308  Scenario2_SlowSpeed.node[208].veinsmobility  speed  ETV
vector 3315  Scenario2_SlowSpeed.node[209].veinsmobility  speed  ETV
vector 3322  Scenario2_SlowSpeed.node[210].veinsmobility  speed  ETV
vector 3329  Scenario2_SlowSpeed.node[211].veinsmobility  speed  ETV
vector 3336  Scenario2_SlowSpeed.node[212].veinsmobility  speed  ETV
vector 3343  Scenario2_SlowSpeed.node[213].veinsmobility  speed  ETV
vector 3355  Scenario2_SlowSpeed.node[215].veinsmobility  posx  ETV
vector 3356  Scenario2_SlowSpeed.node[215].veinsmobility  posy  ETV
vector 3362  Scenario2_SlowSpeed.node[216].veinsmobility  posx  ETV
vector 3363  Scenario2_SlowSpeed.node[216].veinsmobility  posy  ETV
vector 3369  Scenario2_SlowSpeed.node[217].veinsmobility  posx  ETV
vector 3370  Scenario2_SlowSpeed.node[217].veinsmobility  posy  ETV
vector 3295  Scenario2_SlowSpeed.node[206].veinsmobility  acceleration  ETV
vector 3296  Scenario2_SlowSpeed.node[206].veinsmobility  co2emission  ETV
vector 3302  Scenario2_SlowSpeed.node[207].veinsmobility  acceleration  ETV
vector 3303  Scenario2_SlowSpeed.node[207].veinsmobility  co2emission  ETV
vector 3309  Scenario2_SlowSpeed.node[208].veinsmobility  acceleration  ETV
vector 3310  Scenario2_SlowSpeed.node[208].veinsmobility  co2emission  ETV
vector 3316  Scenario2_SlowSpeed.node[209].veinsmobility  acceleration  ETV
vector 3317  Scenario2_SlowSpeed.node[209].veinsmobility  co2emission  ETV
vector 3323  Scenario2_SlowSpeed.node[210].veinsmobility  acceleration  ETV
vector 3324  Scenario2_SlowSpeed.node[210].veinsmobility  co2emission  ETV
vector 3330  Scenario2_SlowSpeed.node[211].veinsmobility  acceleration  ETV
vector 3331  Scenario2_SlowSpeed.node[211].veinsmobility  co2emission  ETV
vector 3337  Scenario2_SlowSpeed.node[212].veinsmobility  acceleration  ETV
vector 3338  Scenario2_SlowSpeed.node[212].veinsmobility  co2emission  ETV
vector 3344  Scenario2_SlowSpeed.node[213].veinsmobility  acceleration  ETV
vector 3345  Scenario2_SlowSpeed.node[213].veinsmobility  co2emission  ETV
vector 3350  Scenario2_SlowSpeed.node[214].veinsmobility  speed  ETV
vector 3351  Scenario2_SlowSpeed.node[214].veinsmobility  acceleration  ETV
vector 3352  Scenario2_SlowSpeed.node[214].veinsmobility  co2emission  ETV
vector 3357  Scenario2_SlowSpeed.node[215].veinsmobility  speed  ETV
vector 3364  Scenario2_SlowSpeed.node[216].veinsmobility  speed  ETV
vector 3371  Scenario2_SlowSpeed.node[217].veinsmobility  speed  ETV
vector 3376  Scenario2_SlowSpeed.node[218].veinsmobility  posx  ETV
vector 3377  Scenario2_SlowSpeed.node[218].veinsmobility  posy  ETV
vector 3383  Scenario2_SlowSpeed.node[219].veinsmobility  posx  ETV
vector 3384  Scenario2_SlowSpeed.node[219].veinsmobility  posy  ETV
vector 3390  Scenario2_SlowSpeed.node[220].veinsmobility  posx  ETV
vector 3391  Scenario2_SlowSpeed.node[220].veinsmobility  posy  ETV
vector 3358  Scenario2_SlowSpeed.node[215].veinsmobility  acceleration  ETV
vector 3359  Scenario2_SlowSpeed.node[215].veinsmobility  co2emission  ETV
vector 3365  Scenario2_SlowSpeed.node[216].veinsmobility  acceleration  ETV
vector 3366  Scenario2_SlowSpeed.node[216].veinsmobility  co2emission  ETV
[...]
2943	15912742	47	516.75
2943	16494288	48	516.75
2943	17085392	49	516.75
2943	17678997	50	516.75
2943	18280286	51	516.75
2943	18883753	52	516.75
2943	19496047	53	516.75
2943	20111030	54	516.75
2943	20732817	55	516.75
2943	21356726	56	516.75
2943	21991124	57	516.75
2943	22626826	58	516.75
2943	23272361	59	516.75
2943	23917943	60	516.75
2942	1988318	17	1022.3247404501
2942	2248276	18	1022.3247404501
2942	2523352	19	1020.5771037347
2942	2807754	20	1016.7701722251
2942	3121508	21	1010.7864028899
2942	3442370	22	1003.09953154
2942	3775644	23	995.17179255838
2942	4139877	24	987.25122217602
2942	4511738	25	979.32895608869
2942	4896177	26	971.37833094756
2942	5304192	27	963.43831369252
2942	5728746	28	955.50521208732
2942	6174618	29	947.56594475552
2942	6654452	30	939.6495071022
2942	7137529	31	931.71999220237
2942	7811726	32	923.7787591844
2942	8306723	33	915.84982929059
2942	8811938	34	907.93025802991
2942	9321919	35	899.98117245972
2942	9838510	36	892.04397854002
2942	10363345	37	884.12910468555
2942	10891536	38	876.16004461058
2942	11428171	39	868.24080314667
2942	11968124	40	860.32070354527
2942	12518374	41	852.38182760449
2942	13068911	42	844.43848752954
2942	13629213	43	836.51482622309
2942	14189722	44	828.55737393159
2942	14760128	45	820.62296291897
2942	15331749	46	812.6754057627
2942	15912742	47	804.73161113868
2942	16494288	48	796.80962035597
2942	17085392	49	788.8891058194
2942	17678997	50	780.93562098906
2942	18280286	51	773.00984900323
2942	18883753	52	765.07168976641
2942	19496047	53	757.12997499099
2942	20111030	54	749.21185655511
2942	20732817	55	741.26339468728
2942	21356726	56	733.33130501088
2942	21991124	57	725.39252734623
2942	22626826	58	717.45917996871
2942	23272361	59	709.52739364538
2942	23917943	60	701.59418601546
2995	3121508	21	3.8019263958015
2995	3442370	22	4.9716098684907
2995	3775644	23	3.197512685636
2995	4139877	24	1.5347391770758
2995	4511738	25	1.4678968326839
2995	4896177	26	1.7036832141364
2995	5304192	27	1.5004266612818
2995	5728746	28	1.3945543159836
2995	6174618	29	1.622731660796
2995	6654452	30	1.6134123719286
2995	7137529	31	1.4850920515612
2995	7811726	32	1.5602802934744
2995	8306723	33	1.480290852998
2995	8811938	34	1.5469958945355
2995	9321919	35	1.6534110160998
2995	9838510	36	1.3498788587324
2995	10363345	37	1.6934282358408
2995	10891536	38	1.560294925523
2995	11428171	39	1.4837222384433
2995	11968124	40	1.6037952107895
2995	12518374	41	1.4047945084662
2995	13068911	42	1.6366677923223
2995	13629213	43	1.5453113096461
2995	14189722	44	1.4618696990362
2995	14760128	45	1.5892055570529
2995	15331749	46	1.6102891755502
2995	15912742	47	1.4974131584153
2995	16494288	48	1.577503722566
2995	17085392	49	1.4511510310826
2995	17678997	50	1.5357368961611
2995	18280286	51	1.5653889943514
2995	18883753	52	1.4374682240939
2995	19496047	53	1.572619613403
2995	20111030	54	1.5520500181519
2995	20732817	55	1.493927959335
2995	21356726	56	1.6860334339685
2995	21991124	57	1.4919515560907
2995	22626826	58	1.5882656449715
2995	23272361	59	1.4039865306301
2995	23917943	60	1.574883435968
2994	3121508	21	2.0178988911351
2994	3442370	22	2.0492382235313
2994	3775644	23	0.86785633564327
2994	4139877	24	-0.0019967524893589
2994	4511738	25	-0.035906046577729
2994	4896177	26	0.084235910195857
2994	5304192	27	-0.020826431536116
2994	5728746	28	-0.074191447093617
2994	6174618	29	0.044151564517525
2994	6654452	30	0.03779249166837
2994	7137529	31	-0.028195001480635
2994	7811726	32	0.010733177624643
2994	8306723	33	-0.030113555816934
2994	8811938	34	0.0046840772288856
2994	9321919	35	0.058002875603269
2994	9838510	36	-0.097694778288714
2994	10363345	37	0.079611553908325
2994	10891536	38	0.0098735468508675
2994	11428171	39	-0.029095375381876
2994	11968124	40	0.032390777799301
2994	12518374	41	-0.069385364949703
2994	13068911	42	0.050270329613704
2994	13629213	43	0.0025334273581397
2994	14189722	44	-0.039809044019785
2994	14760128	45	0.025940954543185
2994	15331749	46	0.035571343880147
2994	15912742	47	-0.022418529868592
2994	16494288	48	0.01866075563943
2994	17085392	49	-0.045768947331235
2994	17678997	50	-0.0014605486206714
2994	18280286	51	0.01356773491716
2994	18883753	52	-0.051824962205719
2994	19496047	53	0.018563814703374
2994	20111030	54	0.007506797590759
2994	20732817	55	-0.022255084391218
2994	21356726	56	0.075396005241201
2994	21991124	57	-0.024877209865954
2994	22626826	58	0.02450755524449
2994	23272361	59	-0.069667103579268
2994	23917943	60	0.019383062871639
2993	2807754	20	2.9961562340673
2993	3121508	21	5.0140551252025
2993	3442370	22	7.0632933487337
2993	3775644	23	7.931149684377
2993	4139877	24	7.9291529318877
2993	4511738	25	7.8932468853099
2993	4896177	26	7.9774827955058
2993	5304192	27	7.9566563639697
2993	5728746	28	7.8824649168761
2993	6174618	29	7.9266164813936
2993	6654452	30	7.9644089730619
2993	7137529	31	7.9362139715813
2993	7811726	32	7.946947149206
2993	8306723	33	7.916833593389
2993	8811938	34	7.9215176706179
2993	9321919	35	7.9795205462212
2993	9838510	36	7.8818257679325
2993	10363345	37	7.9614373218408
2993	10891536	38	7.9713108686917
2993	11428171	39	7.9422154933098
2993	11968124	40	7.9746062711091
2993	12518374	41	7.9052209061594
2993	13068911	42	7.9554912357731
2993	13629213	43	7.9580246631312
2993	14189722	44	7.9182156191114
2993	14760128	45	7.9441565736546
2993	15331749	46	7.9797279175348
2993	15912742	47	7.9573093876662
2993	16494288	48	7.9759701433056
2993	17085392	49	7.9302011959744
2993	17678997	50	7.9287406473537
2993	18280286	51	7.9423083822709
2993	18883753	52	7.8904834200651
2993	19496047	53	7.9090472347685
2993	20111030	54	7.9165540323593
2993	20732817	55	7.8942989479681
2993	21356726	56	7.9696949532093
2993	21991124	57	7.9448177433433
2993	22626826	58	7.9693252985878
2993	23272361	59	7.8996581950085
2993	23917943	60	7.9190412578802
2992	2523352	19	516.75
2992	2807754	20	516.75
2992	3121508	21	516.75
2992	3442370	22	516.75
2992	3775644	23	516.75
2992	4139877	24	516.75
2992	4511738	25	516.75
2992	4896177	26	516.75
2992	5304192	27	516.75
2992	5728746	28	516.75
2992	6174618	29	516.75
2992	6654452	30	516.75
2992	7137529	31	516.75
2992	7811726	32	516.75
2992	8306723	33	516.75
2992	8811938	34	516.75
2992	9321919	35	516.75
2992	9838510	36	516.75
2992	10363345	37	516.75
2992	10891536	38	516.75
2992	11428171	39	516.75
2992	11968124	40	516.75
2992	12518374	41	516.75
2992	13068911	42	516.75
2992	13629213	43	516.75
2992	14189722	44	516.75
2992	14760128	45	516.75
2992	15331749	46	516.75
2992	15912742	47	516.75
2992	16494288	48	516.75
2992	17085392	49	516.75
2992	17678997	50	516.75
2992	18280286	51	516.75
2992	18883753	52	516.75
2992	19496047	53	516.75
2992	20111030	54	516.75
2992	20732817	55	516.75
2992	21356726	56	516.75
2992	21991124	57	516.75
2992	22626826	58	516.75
2992	23272361	59	516.75
2992	23917943	60	516.75
2991	2523352	19	1022.1561316776
2991	2807754	20	1022.1561316776
2991	3121508	21	1020.0164379071
2991	3442370	22	1015.9385719104
2991	3775644	23	1009.832999757
2991	4139877	24	1002.0573917603
2991	4511738	25	994.12156059219
2991	4896177	26	986.17997235958
2991	5304192	27	978.24385199167
2991	5728746	28	970.31257844205
2991	6174618	29	962.39273455082
2991	6654452	30	954.47426672074
2991	7137529	31	946.52503440382
2991	7811726	32	938.5921045867
2991	8306723	33	930.65764664666
2991	8811938	34	922.71788864191
2991	9321919	35	914.77176274231
2991	9838510	36	906.84125635119
2991	10363345	37	898.9199968614
2991	10891536	38	890.97275367669
2991	11428171	39	883.0354925809
2991	11968124	40	875.11468982533
2991	12518374	41	867.17588721002
2991	13068911	42	859.23862487653
2991	13629213	43	851.30736357174
2991	14189722	44	843.37395357494
2991	14760128	45	835.44522473124
2991	15331749	46	827.52150133046
2991	15912742	47	819.57716319944
2991	16494288	48	811.63360666221
2991	17085392	49	803.67950462938
2991	17678997	50	795.73954999233
2991	18280286	51	787.81377325619
2991	18883753	52	779.87695020258
2991	19496047	53	771.94478321727
2991	20111030	54	764.00501032473
2991	20732817	55	756.07348431503
2991	21356726	56	748.13224323309
2991	21991124	57	740.2167478632
2991	22626826	58	732.28596661873
2991	23272361	59	724.3294350494
2991	23917943	60	716.40718171707
3065	3775644	23	4.2939252709198
3065	4139877	24	4.7886933012377
3065	4511738	25	2.4644661678392
3065	4896177	26	1.4353521466593
3065	5304192	27	1.5401214551848
3065	5728746	28	1.4808178040775
3065	6174618	29	1.6386121619255
3065	6654452	30	1.5326054353232
3065	7137529	31	1.6366419972408
3065	7811726	32	1.5727459471829
3065	8306723	33	1.3539563463872
3065	8811938	34	1.6936119336827
3065	9321919	35	1.4109544182431
3065	9838510	36	1.6455828791694
3065	10363345	37	1.3877136933626
3065	10891536	38	1.6986095735899
3065	11428171	39	1.5041822710701
3065	11968124	40	1.3784773866855
3065	12518374	41	1.7804458847413
3065	13068911	42	1.4780404284803
3065	13629213	43	1.4795535634548
3065	14189722	44	1.6210484382774
3065	14760128	45	1.4390695921448
3065	15331749	46	1.6914957426352
3065	15912742	47	1.3251742360691
3065	16494288	48	1.6428172612196
3065	17085392	49	1.4190533785605
3065	17678997	50	1.7219876632361
3065	18280286	51	1.3378740479978
3065	18883753	52	1.7791399479794
3065	19496047	53	1.4041094538543
3065	20111030	54	1.5213763720925
3065	20732817	55	1.4779829303784
3065	21356726	56	1.6889258499789
3065	21991124	57	1.5418450761708
3065	22626826	58	1.4525116526557
3065	23272361	59	1.6612583573886
3065	23917943	60	1.3700727438132
3064	3775644	23	2.1183048893744
3064	4139877	24	1.8174901204975
3064	4511738	25	0.48097187650675
3064	4896177	26	-0.053563091845717
3064	5304192	27	0.0013288329192438
3064	5728746	28	-0.028876177095808
3064	6174618	29	0.0520171243418
3064	6654452	30	-0.0032867232244458
3064	7137529	31	0.049126692805439
3064	7811726	32	0.015360639013816
3064	8306723	33	-0.096014435193502
3064	8811938	34	0.078817915450782
3064	9321919	35	-0.066410188658629
3064	9838510	36	0.054344320520759
3064	10363345	37	-0.07801366715692
3064	10891536	38	0.081785098330584
3064	11428171	39	-0.01879766075639
3064	11968124	40	-0.082404638554435
3064	12518374	41	0.12327534063719
3064	13068911	42	-0.032681743260473
3064	13629213	43	-0.030953135564923
3064	14189722	44	0.041426688681822
3064	14760128	45	-0.051842229091562
3064	15331749	46	0.076983757333364
3064	15912742	47	-0.11081519684056
3064	16494288	48	0.054052630353254
3064	17085392	49	-0.061236227140761
3064	17678997	50	0.093909119588789
3064	18280286	51	-0.10377156111645
3064	18883753	52	0.12270765879191
3064	19496047	53	-0.070196963248309
3064	20111030	54	-0.0084991151536817
3064	20732817	55	-0.03032381179044
3064	21356726	56	0.077268523517996
3064	21991124	57	0.00059120993595574
3064	22626826	58	-0.044685541419312
3064	23272361	59	0.062090562318917
3064	23917943	60	-0.087302928538993
3063	3442370	22	3.5498721347115
3063	3775644	23	5.668177024086
3063	4139877	24	7.4856671445835
3063	4511738	25	7.9666390210902
3063	4896177	26	7.9130759292445
3063	5304192	27	7.9144047621638
3063	5728746	28	7.885528585068
3063	6174618	29	7.9375457094098
3063	6654452	30	7.9342589861853
3063	7137529	31	7.9833856789907
3063	7811726	32	7.9987463180046
3063	8306723	33	7.9027318828111
3063	8811938	34	7.9815497982618
3063	9321919	35	7.9151396096032
3063	9838510	36	7.969483930124
3063	10363345	37	7.891470262967
3063	10891536	38	7.9732553612976
3063	11428171	39	7.9544577005412
3063	11968124	40	7.8720530619868
3063	12518374	41	7.995328402624
3063	13068911	42	7.9626466593635
3063	13629213	43	7.9316935237986
3063	14189722	44	7.9731202124804
3063	14760128	45	7.9212779833889
3063	15331749	46	7.9982617407222
3063	15912742	47	7.8874465438817
3063	16494288	48	7.9414991742349
3063	17085392	49	7.8802629470942
3063	17678997	50	7.974172066683
3063	18280286	51	7.8704005055665
3063	18883753	52	7.9931081643584
3063	19496047	53	7.9229112011101
3063	20111030	54	7.9144120859564
3063	20732817	55	7.884088274166
3063	21356726	56	7.961356797684
3063	21991124	57	7.9619480076199
3063	22626826	58	7.9172624662006
3063	23272361	59	7.9793530285195
3063	23917943	60	7.8920500999806
3062	3121508	21	516.75
3062	3442370	22	516.75
3062	3775644	23	516.75
3062	4139877	24	516.75
3062	4511738	25	516.75
3062	4896177	26	516.75
3062	5304192	27	516.75
3062	5728746	28	516.75
3062	6174618	29	516.75
3062	6654452	30	516.75
3062	7137529	31	516.75
3062	7811726	32	516.75
3062	8306723	33	516.75
3062	8811938	34	516.75
3062	9321919	35	516.75
3062	9838510	36	516.75
3062	10363345	37	516.75
3062	10891536	38	516.75
3062	11428171	39	516.75
3062	11968124	40	516.75
3062	12518374	41	516.75
3062	13068911	42	516.75
3062	13629213	43	516.75
3062	14189722	44	516.75
3062	14760128	45	516.75
3062	15331749	46	516.75
3062	15912742	47	516.75
3062	16494288	48	516.75
3062	17085392	49	516.75
3062	17678997	50	516.75
3062	18280286	51	516.75
3062	18883753	52	516.75
3062	19496047	53	516.75
3062	20111030	54	516.75
3062	20732817	55	516.75
3062	21356726	56	516.75
3062	21991124	57	516.75
3062	22626826	58	516.75
3062	23272361	59	516.75
3062	23917943	60	516.75
3061	3121508	21	1021.8799303682
3061	3442370	22	1021.8799303682
3061	3775644	23	1019.2264005864
3061	4139877	24	1014.5496129484
3061	4511738	25	1007.8592524495
3061	4896177	26	999.95746339951
3061	5304192	27	992.03395514041
3061	5728746	28	984.11131838101
3061	6174618	29	976.19115211956
3061	6654452	30	968.24380352219
3061	7137529	31	960.31586846132
3061	7811726	32	952.37935704927
3061	8306723	33	944.42968659162
3061	8811938	34	936.48405138449
3061	9321919	35	928.53356779834
3061	9838510	36	920.58537688641
3061	10363345	37	912.63818151879
3061	10891536	38	904.71815807032
3061	11428171	39	896.79280106485
3061	11968124	40	888.83925050996
3061	12518374	41	880.89305621242
3061	13068911	42	872.95028835057
3061	13629213	43	865.0138642313
3061	14189722	44	857.07358516211
3061	14760128	45	849.11812085743
3061	15331749	46	841.18398537311
3061	15912742	47	833.25459111405
3061	16494288	48	825.33592615478
3061	17085392	49	817.40298717558
3061	17678997	50	809.46811661435
3061	18280286	51	801.52703154354
3061	18883753	52	793.59383599274
3061	19496047	53	785.65439497234
3061	20111030	54	777.72352498403
3061	20732817	55	769.78817391144
3061	21356726	56	761.87007617833
3061	21991124	57	753.92912857706
3061	22626826	58	745.99471901068
3061	23272361	59	738.05541265217
3061	23917943	60	730.13023548352
3149	4511738	25	4.1443112197656
3149	4896177	26	5.2661786292565
3149	5304192	27	1.7401082354893
3149	5728746	28	1.374425408276
3149	6174618	29	1.5837624419547
3149	6654452	30	1.4385017268137
3149	7137529	31	1.7654930525882
3149	7811726	32	1.4367291541418
3149	8306723	33	1.5272259390588
3149	8811938	34	1.6204618993318
3149	9321919	35	1.5462029202847
3149	9838510	36	1.3947003275593
3149	10363345	37	1.6884284345595
3149	10891536	38	1.5399240644027
3149	11428171	39	1.4489413748608
3149	11968124	40	1.486543378614
3149	12518374	41	1.6687483626537
3149	13068911	42	1.3979306500124
3149	13629213	43	1.6293999438622
3149	14189722	44	1.5063589501679
3149	14760128	45	1.5564990297129
3149	15331749	46	1.4997739315826
3149	15912742	47	1.6756068664843
3149	16494288	48	1.4950372587217
3149	17085392	49	1.5970090501568
3149	17678997	50	1.2998191022041
3149	18280286	51	1.5552183348524
3149	18883753	52	1.7517316600423
3149	19496047	53	1.4172048824634
3149	20111030	54	1.5299450477676
3149	20732817	55	1.6004567639561
3149	21356726	56	1.6105229068714
3149	21991124	57	1.3657917989431
3149	22626826	58	1.7161492535376
3149	23272361	59	1.3124058653573
3149	23917943	60	1.5723009199915
3148	4511738	25	1.9076973545994
3148	4896177	26	1.9602178139286
3148	5304192	27	0.10223675250694
3148	5728746	28	-0.085487271999009
3148	6174618	29	0.023421234888955
3148	6654452	30	-0.051110587515868
3148	7137529	31	0.11530371641042
3148	7811726	32	-0.053749018080998
3148	8306723	33	-0.0062808234221299
3148	8811938	34	0.040831580592784
3148	9321919	35	0.0021471442934127
3148	9838510	36	-0.074749917211011
3148	10363345	37	0.076020515800919
3148	10891536	38	-0.0011216925806359
3148	11428171	39	-0.047081203928683
3148	11968124	40	-0.026596428584307
3148	12518374	41	0.066159846463706
3148	13068911	42	-0.072915566377342
3148	13629213	43	0.046737331091427
3148	14189722	44	-0.01694432811346
3148	14760128	45	0.0089661760209125
3148	15331749	46	-0.020036777313798
3148	15912742	47	0.06908845437225
3148	16494288	48	-0.023936229769606
3148	17085392	49	0.028113933135755
3148	17678997	50	-0.12383632793091
3148	18280286	51	0.010438013630919
3148	18883753	52	0.10864831942599
3148	19496047	53	-0.063424154242966
3148	20111030	54	-0.0042600614298136
3148	20732817	55	0.031465192332399
3148	21356726	56	0.035345497049857
3148	21991124	57	-0.08971387877129
3148	22626826	58	0.090186874917708
3148	23272361	59	-0.11722903724527
3148	23917943	60	0.019060310518835
3147	4139877	24	4.0273957115979
3147	4511738	25	5.9350930661972
3147	4896177	26	7.8953108801258
3147	5304192	27	7.9975476326328
3147	5728746	28	7.9120603606338
3147	6174618	29	7.9354815955227
3147	6654452	30	7.8843710080069
3147	7137529	31	7.9996747244173
3147	7811726	32	7.9459257063363
3147	8306723	33	7.9396448829141
3147	8811938	34	7.9804764635069
3147	9321919	35	7.9826236078003
3147	9838510	36	7.9078736905893
3147	10363345	37	7.9838942063903
3147	10891536	38	7.9827725138096
3147	11428171	39	7.9356913098809
3147	11968124	40	7.9090948812966
3147	12518374	41	7.9752547277603
3147	13068911	42	7.902339161383
3147	13629213	43	7.9490764924744
3147	14189722	44	7.932132164361
3147	14760128	45	7.9410983403819
3147	15331749	46	7.9210615630681
3147	15912742	47	7.9901500174403
3147	16494288	48	7.9662137876707
3147	17085392	49	7.9943277208065
3147	17678997	50	7.8704913928756
3147	18280286	51	7.8809294065065
3147	18883753	52	7.9895777259325
3147	19496047	53	7.9261535716895
3147	20111030	54	7.9218935102597
3147	20732817	55	7.9533587025921
3147	21356726	56	7.9887041996419
3147	21991124	57	7.8989903208707
3147	22626826	58	7.9891771957884
3147	23272361	59	7.8719481585431
3147	23917943	60	7.8910084690619
3146	3775644	23	516.75
3146	4139877	24	516.75
3146	4511738	25	516.75
3146	4896177	26	516.75
3146	5304192	27	516.75
3146	5728746	28	516.75
3146	6174618	29	516.75
3146	6654452	30	516.75
3146	7137529	31	516.75
3146	7811726	32	516.75
3146	8306723	33	516.75
3146	8811938	34	516.75
3146	9321919	35	516.75
3146	9838510	36	516.75
3146	10363345	37	516.75
3146	10891536	38	516.75
3146	11428171	39	516.75
3146	11968124	40	516.75
3146	12518374	41	516.75
3146	13068911	42	516.75
3146	13629213	43	516.75
3146	14189722	44	516.75
3146	14760128	45	516.75
3146	15331749	46	516.75
3146	15912742	47	516.75
3146	16494288	48	516.75
3146	17085392	49	516.75
3146	17678997	50	516.75
3146	18280286	51	516.75
3146	18883753	52	516.75
3146	19496047	53	516.75
3146	20111030	54	516.75
3146	20732817	55	516.75
3146	21356726	56	516.75
3146	21991124	57	516.75
3146	22626826	58	516.75
3146	23272361	59	516.75
3146	23917943	60	516.75
3145	3775644	23	1021.3436682704
3145	4139877	24	1021.3436682704
3145	4511738	25	1018.1927496076
3145	4896177	26	1013.2420885777
3145	5304192	27	1006.2434546072
3145	5728746	28	998.30311265875
3145	6174618	29	990.38130317006
3145	6654452	30	982.46756304179
3145	7137529	31	974.54484941592
3145	7811726	32	966.61275952428
3145	8306723	33	958.67639935271
3145	8811938	34	950.74034426463
3145	9321919	35	942.80769243081
3145	9838510	36	934.86138543526
3145	10363345	37	926.93984091099
3145	10891536	38	918.97646431494
3145	11428171	39	911.04002189859
3145	11968124	40	903.11454500012
3145	12518374	41	895.18737593922
3145	13068911	42	887.24440875259
3145	13629213	43	879.30172350008
3145	14189722	44	871.37261868385
3145	14760128	45	863.42203355733
3145	15331749	46	855.47312389436
3145	15912742	47	847.53436763724
3145	16494288	48	839.59173051331
3145	17085392	49	831.67647360694
3145	17678997	50	823.73132145978
3145	18280286	51	815.79839868883
3145	18883753	52	807.87716392643
3145	19496047	53	799.95563593071
3145	20111030	54	792.01325412536
3145	20732817	55	784.07769339041
3145	21356726	56	776.12871011735
3145	21991124	57	768.18459571056
3145	22626826	58	760.26485610965
3145	23272361	59	752.34537564172
3145	23917943	60	744.4117857342
