file 1767845 1518275572                                         
version 2
run WithoutChSw-WSA-slotted-0-20180208-17:36:50-24834
attr configname WithoutChSw-WSA-slotted
attr datetime 20180208-17:36:50
attr experiment WithoutChSw-WSA-slotted
attr inifile omnetpp.ini
attr iterationvars $0=0.1s
attr iterationvarsf 0.1s-
attr measurement $0=0.1s
attr network Scenario2_SlowSpeed
attr processid 24834
attr repetition 0
attr replication #0
attr resultdir results
attr runnumber 0
attr seedset 0
param **.coreDebug false
param **.debug false
param *.**.nic.mac1609_4.bitrate 6Mbps
param *.**.nic.mac1609_4.txPower 20mW
param *.**.nic.mac1609_4.useServiceChannel false
param *.**.nic.phy80211p.analogueModels "xmldoc(\"config.xml\")"
param *.**.nic.phy80211p.antenna "xmldoc(\"antenna.xml\", \"/root/Antenna[@id='monopole']\")"
param *.**.nic.phy80211p.collectCollisionStatistics true
param *.**.nic.phy80211p.decider "xmldoc(\"config.xml\")"
param *.**.nic.phy80211p.sensitivity -89dBm
param *.**.nic.phy80211p.thermalNoise -110dBm
param *.**.nic.phy80211p.usePropagationDelay true
param *.**.nic.phy80211p.useThermalNoise true
param *.annotations.draw true
param *.connectionManager.drawMaxIntfDist false
param *.connectionManager.maxInterfDist 2600m
param *.connectionManager.sendDirect true
param *.manager.autoShutdown true
param *.manager.host "\"localhost\""
param *.manager.launchConfig "xmldoc(\"mycross.launchd.xml\")"
param *.manager.port 9999
param *.manager.updateInterval 1s
param *.node[*].appl.Slotted1Enabled true
param *.node[*].appl.Slotted_Ns 5
param *.node[*].appl.Slotted_R 500
param *.node[*].appl.Slotted_tau 0.005
param *.node[*].appl.beaconInterval 1s
param *.node[*].appl.dataOnSch false
param *.node[*].appl.headerLength "80 bit"
param *.node[*].appl.sendBeacons true
param *.node[*].appl.sendWSA true
param *.node[*].applType "\"myWaveAppLayer\""
param *.node[*].veinsmobility.x 0
param *.node[*].veinsmobility.y 0
param *.node[*].veinsmobility.z 1.895
param *.node[*].veinsmobilityType.debug true
param *.node[20].appl.Accident_start 30
param *.node[40].veinsmobility.accidentCount 1
param *.node[40].veinsmobility.accidentDuration 40s
param *.node[40].veinsmobility.accidentStart 30s
param *.obstacles.debug false
param *.playgroundSizeX 2500m
param *.playgroundSizeY 2500m
param *.playgroundSizeZ 50m
param *.rsu[*].appl.beaconInterval 0.1s
param *.rsu[*].appl.beaconUserPriority 7
param *.rsu[*].appl.dataOnSch false
param *.rsu[*].appl.dataUserPriority 5
param *.rsu[*].appl.headerLength "80 bit"
param *.rsu[*].appl.sendBeacons false
param *.rsu[*].applType "\"TraCIDemoRSU11p\""
param *.rsu[0].mobility.x 500
param *.rsu[0].mobility.y 500
param *.rsu[0].mobility.z 3
vector 2  Scenario2_SlowSpeed.node[0].veinsmobility  posx  ETV
2	101685 1257 2 116979645 1 60 60 516.75 523.35 31283.757721043 16311466.917341
vector 3  Scenario2_SlowSpeed.node[0].veinsmobility  posy  ETV
3	99917 1768 2 116979645 1 60 60 294.23861312165 743.39233800759 30642.499191415 16753639.379037
vector 9  Scenario2_SlowSpeed.node[1].veinsmobility  posx  ETV
9	110256 1248 2 116979645 1 60 60 516.75 523.35 31293.420871364 16321549.392009
vector 10  Scenario2_SlowSpeed.node[1].veinsmobility  posy  ETV
10	108428 1828 2 116979645 1 60 60 315.73881710243 766.73164888826 32004.347903485 18187718.823889
vector 16  Scenario2_SlowSpeed.node[2].veinsmobility  posx  ETV
16	118781 1309 2 116979645 1 60 60 516.75 523.35 31331.460872495 16361305.955738
vector 17  Scenario2_SlowSpeed.node[2].veinsmobility  posy  ETV
17	116955 1826 2 116979645 1 60 60 434.42206229638 881.60297755782 38914.313167432 26345685.766933
vector 23  Scenario2_SlowSpeed.node[3].veinsmobility  posx  ETV
23	198892 1291 2 116979645 1 60 60 516.75 520.05 31150.2 16172377.11
vector 24  Scenario2_SlowSpeed.node[3].veinsmobility  posy  ETV
24	197067 1825 2 116979645 1 60 60 60.572694186159 479.85069601971 16565.891355082 5648418.3320794
vector 30  Scenario2_SlowSpeed.node[4].veinsmobility  posx  ETV
30	278133 1759 2 116979645 1 60 60 599.95115988335 813.45423024949 41050.263451754 28387760.633873
vector 31  Scenario2_SlowSpeed.node[4].veinsmobility  posy  ETV
31	276842 1291 2 116979645 1 60 60 516.75 523.35 31338.3 16368466.41
vector 37  Scenario2_SlowSpeed.node[5].veinsmobility  posx  ETV
37	354558 1291 2 116979645 1 60 60 513.45 520.05 31160.1 16182706.77
vector 38  Scenario2_SlowSpeed.node[5].veinsmobility  posy  ETV
38	352835 1723 2 116979645 1 60 60 190.72442993538 512.649 23364.299243724 9862736.6915214
vector 44  Scenario2_SlowSpeed.node[6].veinsmobility  posx  ETV
44	433288 1291 2 116979645 1 60 60 513.45 516.75 30952.2 15967439.19
vector 45  Scenario2_SlowSpeed.node[6].veinsmobility  posy  ETV
45	431464 1824 2 116979645 1 60 60 68.462519944901 267.67541525278 12503.755908424 2848577.310355
vector 51  Scenario2_SlowSpeed.node[7].veinsmobility  posx  ETV
51	510984 1318 2 116979645 1 60 60 516.75 523.35 31303.743762663 16332320.360104
vector 52  Scenario2_SlowSpeed.node[7].veinsmobility  posy  ETV
52	509156 1828 2 116979645 1 60 60 342.57365298987 791.45377003428 33490.931726447 19807291.596973
vector 58  Scenario2_SlowSpeed.node[8].veinsmobility  posx  ETV
58	581113 1291 2 116979645 1 60 60 513.45 520.05 31077.6 16097475.69
vector 59  Scenario2_SlowSpeed.node[8].veinsmobility  posy  ETV
59	579290 1823 2 116979645 1 60 60 35.753727539591 468.03277738262 15170.761405011 4931217.3066683
vector 65  Scenario2_SlowSpeed.node[9].veinsmobility  posx  ETV
65	653151 1309 2 116979645 1 60 60 513.45 523.35 31211.516764029 16236373.809237
vector 66  Scenario2_SlowSpeed.node[9].veinsmobility  posy  ETV
66	651327 1824 2 116979645 1 60 60 205.81504770681 656.9056268389 25421.755367696 11887217.466636
vector 72  Scenario2_SlowSpeed.node[10].veinsmobility  posx  ETV
72	720331 1309 2 116979645 1 60 60 516.75 523.35 31324.900561039 16354373.840569
vector 73  Scenario2_SlowSpeed.node[10].veinsmobility  posy  ETV
73	718506 1825 2 116979645 1 60 60 385.78360209097 834.10861974063 36070.707932109 22791701.104762
vector 79  Scenario2_SlowSpeed.node[11].veinsmobility  posx  ETV
79	783209 1738 2 116979645 1 60 60 410.89183652349 713.72469519187 33679.536072669 19309632.908849
vector 80  Scenario2_SlowSpeed.node[11].veinsmobility  posy  ETV
80	781918 1291 2 116979645 1 60 60 520.05 520.05 31203 16227120.15
vector 86  Scenario2_SlowSpeed.node[12].veinsmobility  posx  ETV
86	843323 1309 2 116979645 1 60 60 516.75 523.35 31319.932533839 16349189.928491
vector 87  Scenario2_SlowSpeed.node[12].veinsmobility  posy  ETV
87	841495 1828 2 116979645 1 60 60 375.57674044154 822.48577296195 35386.64105123 21971466.41253
vector 93  Scenario2_SlowSpeed.node[13].veinsmobility  posx  ETV
93	851948 1309 2 116979645 1 60 60 516.75 523.35 31255.459117081 16282005.628686
vector 94  Scenario2_SlowSpeed.node[13].veinsmobility  posy  ETV
94	850125 1823 2 116979645 1 60 60 248.56088949988 698.93252344183 27941.192548343 14127570.28298
vector 100  Scenario2_SlowSpeed.node[14].veinsmobility  posx  ETV
100	860453 1351 2 116979645 1 60 60 513.45 520.05 31137 16158756.69
vector 101  Scenario2_SlowSpeed.node[14].veinsmobility  posy  ETV
101	858610 1843 2 116979645 1 60 60 131.4836883334 498.645 20442.428704591 7898844.6956918
vector 107  Scenario2_SlowSpeed.node[15].veinsmobility  posx  ETV
107	869045 1351 2 116979645 1 60 60 513.45 516.75 30995.1 16011634.77
vector 108  Scenario2_SlowSpeed.node[15].veinsmobility  posy  ETV
108	867171 1874 2 116979645 1 60 60 392.33162010632 482.141 27124.87702538 12292584.566069
vector 114  Scenario2_SlowSpeed.node[16].veinsmobility  posx  ETV
114	877422 1351 2 116979645 1 60 60 513.45 520.05 31130.4 16151892.03
vector 115  Scenario2_SlowSpeed.node[16].veinsmobility  posy  ETV
115	875592 1830 2 116979645 1 60 60 179.64788603307 502.146 21824.377525475 8666885.0229904
vector 121  Scenario2_SlowSpeed.node[17].veinsmobility  posx  ETV
121	886067 1351 2 116979645 1 60 60 513.45 513.45 30807 15817854.15
vector 122  Scenario2_SlowSpeed.node[17].veinsmobility  posy  ETV
122	884179 1888 2 116979645 1 60 60 121.43074395185 430.38532741005 17561.591831176 5762892.7140146
vector 128  Scenario2_SlowSpeed.node[18].veinsmobility  posx  ETV
128	894967 1369 2 116979645 1 60 60 516.75 523.35 31370.552240964 16401984.668656
vector 129  Scenario2_SlowSpeed.node[18].veinsmobility  posy  ETV
129	893088 1879 2 116979645 1 60 60 489.37302299786 935.95083005978 42163.24425749 30740374.102045
vector 135  Scenario2_SlowSpeed.node[19].veinsmobility  posx  ETV
135	903898 1369 2 116979645 1 60 60 516.75 523.35 31364.350204589 16395513.689799
vector 136  Scenario2_SlowSpeed.node[19].veinsmobility  posy  ETV
136	902016 1882 2 116979645 1 60 60 473.91505634131 921.24367414173 41272.924510033 29504391.147282
vector 142  Scenario2_SlowSpeed.node[20].veinsmobility  posx  ETV
142	912702 1351 2 116979645 1 60 60 513.45 520.05 31074.3 16094054.25
vector 143  Scenario2_SlowSpeed.node[20].veinsmobility  posy  ETV
143	910821 1881 2 116979645 1 60 60 56.592933223698 474.45022892251 16033.794381827 5329999.50153
vector 149  Scenario2_SlowSpeed.node[21].veinsmobility  posx  ETV
149	921006 1351 2 116979645 1 60 60 513.45 516.75 30995.1 16011634.77
vector 150  Scenario2_SlowSpeed.node[21].veinsmobility  posy  ETV
150	919124 1882 2 116979645 1 60 60 384.39981740589 457.09525139228 26250.117679588 11504862.557763
vector 156  Scenario2_SlowSpeed.node[22].veinsmobility  posx  ETV
156	929653 1351 2 116979645 1 60 60 513.45 513.45 30807 15817854.15
vector 157  Scenario2_SlowSpeed.node[22].veinsmobility  posy  ETV
157	927768 1885 2 116979645 1 60 60 166.11287157754 473.10467747693 20476.806041194 7564086.0523695
vector 163  Scenario2_SlowSpeed.node[23].veinsmobility  posx  ETV
163	938112 1759 2 116979645 1 60 60 159.39363870746 513.45 22726.399145568 9448102.4560091
vector 164  Scenario2_SlowSpeed.node[23].veinsmobility  posy  ETV
164	936628 1484 2 116979645 1 60 60 438.5913538713 523.35 30627.146201415 15673941.545793
vector 170  Scenario2_SlowSpeed.node[24].veinsmobility  posx  ETV
170	947374 1369 2 116979645 1 60 60 516.75 520.05 31176.042539177 16199167.214195
vector 171  Scenario2_SlowSpeed.node[24].veinsmobility  posy  ETV
171	945495 1879 2 116979645 1 60 60 495.32224281049 925.8852956041 41666.10699801 30003429.589629
vector 177  Scenario2_SlowSpeed.node[25].veinsmobility  posx  ETV
177	955116 1777 2 116979645 1 60 60 540.27004600486 702.65942375412 37026.981671915 22976833.502121
vector 178  Scenario2_SlowSpeed.node[25].veinsmobility  posy  ETV
178	953765 1351 2 116979645 1 60 60 516.75 523.35 31344.9 16375331.07
vector 184  Scenario2_SlowSpeed.node[26].veinsmobility  posx  ETV
184	963838 1351 2 116979645 1 60 60 513.45 516.75 30978.6 15994636.47
vector 185  Scenario2_SlowSpeed.node[26].veinsmobility  posy  ETV
185	961964 1874 2 116979645 1 60 60 236.87823661944 376.72521346992 20228.751836322 6920504.2989876
vector 191  Scenario2_SlowSpeed.node[27].veinsmobility  posx  ETV
191	972602 1351 2 116979645 1 60 60 513.45 516.75 30965.4 15981037.83
vector 192  Scenario2_SlowSpeed.node[27].veinsmobility  posy  ETV
192	970716 1886 2 116979645 1 60 60 146.70164613789 331.9843867395 16555.487018339 4764853.4206482
vector 198  Scenario2_SlowSpeed.node[28].veinsmobility  posx  ETV
198	981463 1369 2 116979645 1 60 60 513.45 523.35 31206.585208166 16231446.243152
vector 199  Scenario2_SlowSpeed.node[28].veinsmobility  posy  ETV
199	979581 1882 2 116979645 1 60 60 254.80712876699 685.08606541078 27326.406103735 13482902.495474
vector 205  Scenario2_SlowSpeed.node[29].veinsmobility  posx  ETV
205	989549 1831 2 116979645 1 60 60 618.76663042405 833.03162283865 42110.147961155 29877767.735926
vector 206  Scenario2_SlowSpeed.node[29].veinsmobility  posy  ETV
206	988198 1351 2 116979645 1 60 60 516.75 523.35 31338.3 16368466.41
vector 212  Scenario2_SlowSpeed.node[30].veinsmobility  posx  ETV
212	998373 1351 2 116979645 1 60 60 516.75 523.35 31328.4 16358049.63
vector 213  Scenario2_SlowSpeed.node[30].veinsmobility  posy  ETV
213	996567 1806 2 116979645 1 60 60 172.43852714971 512.649 22387.642023081 9202434.343093
vector 219  Scenario2_SlowSpeed.node[31].veinsmobility  posx  ETV
219	1007239 1369 2 116979645 1 60 60 513.45 523.35 31292.088152967 16320355.250482
vector 220  Scenario2_SlowSpeed.node[31].veinsmobility  posy  ETV
220	1005356 1883 2 116979645 1 60 60 374.98519054212 810.75533115566 34762.971560264 21213262.957615
vector 226  Scenario2_SlowSpeed.node[32].veinsmobility  posx  ETV
226	1015835 1351 2 116979645 1 60 60 513.45 516.75 30985.2 16001435.79
vector 227  Scenario2_SlowSpeed.node[32].veinsmobility  posy  ETV
227	1013948 1887 2 116979645 1 60 60 347.66844893167 422.98754817665 24184.200738335 9776643.3343998
vector 233  Scenario2_SlowSpeed.node[33].veinsmobility  posx  ETV
233	1024716 1378 2 116979645 1 60 60 513.45 523.35 31339.927580978 16370226.833658
vector 234  Scenario2_SlowSpeed.node[33].veinsmobility  posy  ETV
234	1022831 1885 2 116979645 1 60 60 478.50692365784 909.48459068139 40660.581732583 28632090.458122
vector 240  Scenario2_SlowSpeed.node[34].veinsmobility  posx  ETV
240	1033590 1369 2 116979645 1 60 60 513.45 523.35 31255.711488488 16282508.741343
vector 241  Scenario2_SlowSpeed.node[34].veinsmobility  posy  ETV
241	1031710 1880 2 116979645 1 60 60 320.59025162323 755.0923942404 31477.371973226 17566557.603168
vector 247  Scenario2_SlowSpeed.node[35].veinsmobility  posx  ETV
247	1048583 1541 2 116979645 1 60 60 516.75 547.54204633712 31615.638226368 16662749.779338
vector 248  Scenario2_SlowSpeed.node[35].veinsmobility  posy  ETV
248	1047081 1502 2 116979645 1 60 60 523.35 608.43846603479 31928.898182496 17016315.890299
vector 254  Scenario2_SlowSpeed.node[36].veinsmobility  posx  ETV
254	1064771 1721 2 116979645 1 60 60 399.28367481584 636.19684408815 31576.878639775 16799236.110587
vector 255  Scenario2_SlowSpeed.node[36].veinsmobility  posy  ETV
255	1063420 1351 2 116979645 1 60 60 516.75 520.05 31153.5 16175798.55
vector 261  Scenario2_SlowSpeed.node[37].veinsmobility  posx  ETV
261	1081803 1886 2 116979645 1 60 60 527.62296487143 954.16631392303 45474.896367117 35509180.608668
vector 262  Scenario2_SlowSpeed.node[37].veinsmobility  posy  ETV
262	1080452 1351 2 116979645 1 60 60 516.75 516.75 31005 16021833.75
vector 268  Scenario2_SlowSpeed.node[38].veinsmobility  posx  ETV
268	1125734 1378 2 116979645 1 60 60 513.45 523.35 31339.976537831 16370212.756087
vector 269  Scenario2_SlowSpeed.node[38].veinsmobility  posy  ETV
269	1123853 1881 2 116979645 1 60 60 445.26465031937 894.5247641239 39668.520256088 27341276.928439
vector 275  Scenario2_SlowSpeed.node[39].veinsmobility  posx  ETV
275	1167922 1756 2 116979645 1 60 60 519.05200000267 679.690304252 35786.331186505 21447888.896086
vector 276  Scenario2_SlowSpeed.node[39].veinsmobility  posy  ETV
276	1166553 1369 2 116979645 1 60 60 516.75 525.08038673738 31366.439745138 16397749.035562
vector 282  Scenario2_SlowSpeed.node[40].veinsmobility  posx  ETV
282	1218530 1351 2 116979645 1 60 60 513.45 516.75 30991.8 16008235.11
vector 283  Scenario2_SlowSpeed.node[40].veinsmobility  posy  ETV
283	1216642 1888 2 116979645 1 60 60 303.43683106399 398.56472910319 22891.002780475 8780075.0126412
vector 289  Scenario2_SlowSpeed.node[41].veinsmobility  posx  ETV
289	1293615 1857 2 116979645 1 60 60 421.78162583726 742.98246775308 35513.018394445 21566825.26856
vector 290  Scenario2_SlowSpeed.node[41].veinsmobility  posy  ETV
290	1292264 1351 2 116979645 1 60 60 516.75 523.35 31222.8 16247823.03
vector 296  Scenario2_SlowSpeed.node[42].veinsmobility  posx  ETV
296	1311163 1367 2 116979645 1 60 60 513.45 523.35 31196.469225285 16220956.724823
vector 297  Scenario2_SlowSpeed.node[42].veinsmobility  posy  ETV
297	1309278 1885 2 116979645 1 60 60 217.79685306714 668.61500940007 26120.417404406 12487512.272376
vector 303  Scenario2_SlowSpeed.node[43].veinsmobility  posx  ETV
303	1397722 1369 2 116979645 1 60 60 516.75 520.05 31150.28518271 16172462.202172
vector 304  Scenario2_SlowSpeed.node[43].veinsmobility  posy  ETV
304	1395836 1886 2 116979645 1 60 60 478.13553341236 862.11326188217 38423.782349193 25488305.494757
vector 310  Scenario2_SlowSpeed.node[44].veinsmobility  posx  ETV
310	1459508 1864 2 116979645 1 60 60 410.6894345608 737.60624042032 35231.534067116 21274069.180947
vector 311  Scenario2_SlowSpeed.node[44].veinsmobility  posy  ETV
311	1458157 1351 2 116979645 1 60 60 516.75 516.75 31005 16021833.75
vector 317  Scenario2_SlowSpeed.node[45].veinsmobility  posx  ETV
317	1482616 1685 2 116979645 1 60 60 516.75 602.28017179907 33517.640443681 18759336.746346
vector 318  Scenario2_SlowSpeed.node[45].veinsmobility  posy  ETV
318	1481202 1414 2 116979645 1 60 60 520.05 565.50220465494 31529.993495231 16572844.046566
vector 324  Scenario2_SlowSpeed.node[46].veinsmobility  posx  ETV
324	1519917 1862 2 116979645 1 60 60 636.31746244742 880.35821271708 44144.967466206 32938171.439285
vector 325  Scenario2_SlowSpeed.node[46].veinsmobility  posy  ETV
325	1518566 1351 2 116979645 1 60 60 516.75 523.35 31315.2 16344450.99
vector 331  Scenario2_SlowSpeed.node[47].veinsmobility  posx  ETV
331	134258 1857 113812 116979645 2 60 59 669.60684745749 935.14495707983 46145.508758947 36638047.035787
vector 332  Scenario2_SlowSpeed.node[47].veinsmobility  posy  ETV
332	132922 1336 113812 116979645 2 60 59 520.05 523.35 30844.65 16125385.9275
vector 338  Scenario2_SlowSpeed.node[48].veinsmobility  posx  ETV
338	220406 1863 113812 116979645 2 60 59 422.27089686306 753.46336144107 35162.527046712 21523533.035447
vector 339  Scenario2_SlowSpeed.node[48].veinsmobility  posy  ETV
339	219070 1336 113812 116979645 2 60 59 516.75 520.05 30597.15 15867710.7075
vector 345  Scenario2_SlowSpeed.node[49].veinsmobility  posx  ETV
345	256182 1866 113812 116979645 2 60 59 567.43445309572 1011.5924248464 47023.908419444 38543449.726207
vector 346  Scenario2_SlowSpeed.node[49].veinsmobility  posy  ETV
346	254846 1336 113812 116979645 2 60 59 516.75 516.75 30488.25 15754803.1875
vector 352  Scenario2_SlowSpeed.node[50].veinsmobility  posx  ETV
352	319682 1608 113812 116979645 2 60 59 516.75 598.60367962628 32178.806937857 17581657.476732
vector 353  Scenario2_SlowSpeed.node[50].veinsmobility  posy  ETV
353	318248 1434 113812 116979645 2 60 59 520.05 587.42482004661 31150.85339238 16459131.411417
vector 359  Scenario2_SlowSpeed.node[51].veinsmobility  posx  ETV
359	390706 1866 113812 116979645 2 60 59 548.46950807696 990.38123255875 45890.145996054 36750545.630566
vector 360  Scenario2_SlowSpeed.node[51].veinsmobility  posy  ETV
360	389370 1336 113812 116979645 2 60 59 516.75 516.75 30488.25 15754803.1875
vector 366  Scenario2_SlowSpeed.node[52].veinsmobility  posx  ETV
366	473629 1698 113812 116979645 2 60 59 516.75 653.83256071001 34115.147469914 19804995.036443
vector 367  Scenario2_SlowSpeed.node[52].veinsmobility  posy  ETV
367	472257 1372 113812 116979645 2 60 59 516.75 544.70102534718 30892.319374333 16175972.614301
vector 373  Scenario2_SlowSpeed.node[53].veinsmobility  posx  ETV
373	495378 1851 113812 116979645 2 60 59 653.59442820606 921.2992645168 45171.814322754 35136098.16767
vector 374  Scenario2_SlowSpeed.node[53].veinsmobility  posy  ETV
374	494042 1336 113812 116979645 2 60 59 516.75 523.35 30791.85 16070512.2075
vector 380  Scenario2_SlowSpeed.node[54].veinsmobility  posx  ETV
380	618623 1860 113812 116979645 2 60 59 685.16199737133 1020.1880544997 49958.883685048 43129912.034744
vector 381  Scenario2_SlowSpeed.node[54].veinsmobility  posy  ETV
381	617287 1336 113812 116979645 2 60 59 516.75 523.35 30752.25 16029258.9075
vector 387  Scenario2_SlowSpeed.node[55].veinsmobility  posx  ETV
387	638386 1780 113812 116979645 2 60 59 580.71264602425 769.92118992672 38800.984537114 25727152.09324
vector 388  Scenario2_SlowSpeed.node[55].veinsmobility  posy  ETV
388	637050 1336 113812 116979645 2 60 59 516.75 523.35 30824.85 16104857.2875
vector 394  Scenario2_SlowSpeed.node[56].veinsmobility  posx  ETV
394	689571 1864 113812 116979645 2 60 59 537.42020966734 964.33815418211 45126.636822605 35530449.740055
vector 395  Scenario2_SlowSpeed.node[56].veinsmobility  posy  ETV
395	688235 1336 113812 116979645 2 60 59 516.75 520.05 30646.65 15919032.3075
vector 401  Scenario2_SlowSpeed.node[57].veinsmobility  posx  ETV
401	739142 1862 113812 116979645 2 60 59 485.90289098143 912.63740337742 42054.265460099 30980762.286219
vector 402  Scenario2_SlowSpeed.node[57].veinsmobility  posy  ETV
402	737806 1336 113812 116979645 2 60 59 516.75 520.05 30663.15 15936139.5075
vector 408  Scenario2_SlowSpeed.node[58].veinsmobility  posx  ETV
408	805243 1594 113812 116979645 2 60 59 399.04155236176 535.57061431977 30036.845269318 15369378.648013
vector 409  Scenario2_SlowSpeed.node[58].veinsmobility  posy  ETV
409	803907 1336 113812 116979645 2 60 59 516.75 516.75 30488.25 15754803.1875
vector 415  Scenario2_SlowSpeed.node[59].veinsmobility  posx  ETV
415	1041328 1336 113812 116979645 2 60 59 513.45 516.75 30475.05 15741204.5475
vector 416  Scenario2_SlowSpeed.node[59].veinsmobility  posy  ETV
416	1039467 1861 113812 116979645 2 60 59 297.18041824831 390.68614416194 21836.360708824 8124731.0067029
vector 422  Scenario2_SlowSpeed.node[60].veinsmobility  posx  ETV
422	1057323 1336 113812 116979645 2 60 59 516.75 520.05 30643.35 15915610.8675
vector 423  Scenario2_SlowSpeed.node[60].veinsmobility  posy  ETV
423	1055480 1843 113812 116979645 2 60 59 118.28516280949 491.643 19137.386308384 7128703.4473263
vector 429  Scenario2_SlowSpeed.node[61].veinsmobility  posx  ETV
429	1073491 1336 113812 116979645 2 60 59 513.45 516.75 30478.35 15744604.2075
vector 430  Scenario2_SlowSpeed.node[61].veinsmobility  posy  ETV
430	1071632 1859 113812 116979645 2 60 59 365.29531542682 447.11711984918 25252.368181522 10836311.308468
vector 436  Scenario2_SlowSpeed.node[62].veinsmobility  posx  ETV
436	1090942 1336 113812 116979645 2 60 59 513.45 520.05 30626.85 15898569.0075
vector 437  Scenario2_SlowSpeed.node[62].veinsmobility  posy  ETV
437	1089094 1848 113812 116979645 2 60 59 103.3665930651 488.142 18276.206223008 6622413.5877197
vector 443  Scenario2_SlowSpeed.node[63].veinsmobility  posx  ETV
443	1099520 1336 113812 116979645 2 60 59 513.45 516.75 30442.05 15707207.9475
vector 444  Scenario2_SlowSpeed.node[63].veinsmobility  posy  ETV
444	1097663 1857 113812 116979645 2 60 59 116.69069394571 281.6089132419 13697.535223312 3336626.5672313
vector 450  Scenario2_SlowSpeed.node[64].veinsmobility  posx  ETV
450	1108143 1336 113812 116979645 2 60 59 513.45 516.75 30438.75 15703808.2875
vector 451  Scenario2_SlowSpeed.node[64].veinsmobility  posy  ETV
451	1106281 1862 113812 116979645 2 60 59 88.4739741455 272.40137819293 12877.554459534 3008773.726304
vector 457  Scenario2_SlowSpeed.node[65].veinsmobility  posx  ETV
457	1116821 1362 113812 116979645 2 60 59 513.45 520.05 30617.822938949 15889184.152808
vector 458  Scenario2_SlowSpeed.node[65].veinsmobility  posy  ETV
458	1114957 1864 113812 116979645 2 60 59 466.98145321813 838.78803306537 36756.627601274 23705962.568645
vector 464  Scenario2_SlowSpeed.node[66].veinsmobility  posx  ETV
464	1134449 1336 113812 116979645 2 60 59 516.75 520.05 30633.45 15905346.5475
vector 465  Scenario2_SlowSpeed.node[66].veinsmobility  posy  ETV
465	1132598 1851 113812 116979645 2 60 59 83.67403447679 484.32999338627 17244.170849768 6041551.4008748
vector 471  Scenario2_SlowSpeed.node[67].veinsmobility  posx  ETV
471	1143179 1352 113812 116979645 2 60 59 516.75 523.35 30768.846307874 16046442.210583
vector 472  Scenario2_SlowSpeed.node[67].veinsmobility  posy  ETV
472	1141324 1855 113812 116979645 2 60 59 359.1020480215 779.69558359423 32614.027120143 19034348.717509
vector 478  Scenario2_SlowSpeed.node[68].veinsmobility  posx  ETV
478	1151710 1336 113812 116979645 2 60 59 513.45 520.05 30488.25 15755020.9875
vector 479  Scenario2_SlowSpeed.node[68].veinsmobility  posy  ETV
479	1149850 1860 113812 116979645 2 60 59 207.28348604924 365.90154988942 18282.081216097 5788960.1264361
vector 485  Scenario2_SlowSpeed.node[69].veinsmobility  posx  ETV
485	1160278 1363 113812 116979645 2 60 59 513.45 520.05 30589.745704853 15860073.770151
vector 486  Scenario2_SlowSpeed.node[69].veinsmobility  posy  ETV
486	1158418 1860 113812 116979645 2 60 59 462.27490013218 768.9743445413 33963.106641076 20080665.4702
vector 492  Scenario2_SlowSpeed.node[70].veinsmobility  posx  ETV
492	1177094 1353 113812 116979645 2 60 59 513.45 523.35 30715.55217616 15991139.773744
vector 493  Scenario2_SlowSpeed.node[70].veinsmobility  posy  ETV
493	1175233 1861 113812 116979645 2 60 59 281.52680924153 714.61079449942 28687.011106875 14988416.193687
vector 499  Scenario2_SlowSpeed.node[71].veinsmobility  posx  ETV
499	1535429 1765 113812 116979645 2 60 59 560.64214990621 716.74257684651 37283.720872993 23684062.839248
vector 500  Scenario2_SlowSpeed.node[71].veinsmobility  posy  ETV
500	1534093 1336 113812 116979645 2 60 59 516.75 523.35 30811.65 16091171.5275
vector 4  Scenario2_SlowSpeed.node[0].veinsmobility  speed  ETV
4	98173 1744 113812 116979645 2 60 59 4.0518554631622 7.9879484311235 460.0414651717 3605.0777638341
vector 11  Scenario2_SlowSpeed.node[1].veinsmobility  speed  ETV
11	106629 1799 113812 116979645 2 60 59 3.7822135175928 7.9984821532085 462.10073583584 3639.8243890941
vector 18  Scenario2_SlowSpeed.node[2].veinsmobility  speed  ETV
18	115159 1796 113812 116979645 2 60 59 3.897912896338 7.9983026179066 458.34535226208 3584.9509262523
vector 25  Scenario2_SlowSpeed.node[3].veinsmobility  speed  ETV
25	195264 1803 113812 116979645 2 60 59 0.57513828796073 7.9971425564191 419.27609492304 3194.7399817192
vector 32  Scenario2_SlowSpeed.node[4].veinsmobility  speed  ETV
32	275124 1718 113812 116979645 2 60 59 0 7.998761665849 222.34504015392 1425.5514012208
vector 39  Scenario2_SlowSpeed.node[5].veinsmobility  speed  ETV
39	351207 1628 113812 116979645 2 60 59 0 7.9973915574094 320.87702098957 2467.639705048
vector 46  Scenario2_SlowSpeed.node[6].veinsmobility  speed  ETV
46	429629 1835 113812 116979645 2 60 59 4.6617527336404e-14 7.997091273223 199.80163674071 1261.2823637531
vector 53  Scenario2_SlowSpeed.node[7].veinsmobility  speed  ETV
53	507351 1805 113812 116979645 2 60 59 3.6521305802925 7.9997695896658 459.94559022791 3612.5457911568
vector 60  Scenario2_SlowSpeed.node[8].veinsmobility  speed  ETV
60	577485 1805 113812 116979645 2 60 59 1.8682373661303 7.9992279617442 434.15412323641 3316.7939295762
vector 67  Scenario2_SlowSpeed.node[9].veinsmobility  speed  ETV
67	649527 1800 113812 116979645 2 60 59 3.932047590691 7.9987972018146 462.13619424385 3638.8506309445
vector 74  Scenario2_SlowSpeed.node[10].veinsmobility  speed  ETV
74	716704 1802 113812 116979645 2 60 59 3.6504235994233 7.9996732960711 459.00156087205 3595.0809512593
vector 81  Scenario2_SlowSpeed.node[11].veinsmobility  speed  ETV
81	780265 1653 113812 116979645 2 60 59 0 7.9958774312795 313.81983599692 2298.1583527377
vector 88  Scenario2_SlowSpeed.node[12].veinsmobility  speed  ETV
88	839691 1804 113812 116979645 2 60 59 3.8852701568365 7.9989470190112 457.31240300307 3567.076709663
vector 95  Scenario2_SlowSpeed.node[13].veinsmobility  speed  ETV
95	848322 1803 113812 116979645 2 60 59 3.7319341546602 7.9997326215007 461.36810938502 3629.4254866862
vector 102  Scenario2_SlowSpeed.node[14].veinsmobility  speed  ETV
102	856826 1784 113812 116979645 2 60 59 0 7.9907930444996 366.07626261118 2792.0624676114
vector 109  Scenario2_SlowSpeed.node[15].veinsmobility  speed  ETV
109	865296 1875 113812 116979645 2 60 59 0 7.9410842300532 88.479327618153 328.38466480339
vector 116  Scenario2_SlowSpeed.node[16].veinsmobility  speed  ETV
116	873838 1754 113812 116979645 2 60 59 0 7.9883575403341 321.51119447947 2299.8665503757
vector 123  Scenario2_SlowSpeed.node[17].veinsmobility  speed  ETV
123	882310 1869 113812 116979645 2 60 59 0.10028231267116 7.9826764320379 308.81959896741 2054.3431918938
vector 130  Scenario2_SlowSpeed.node[18].veinsmobility  speed  ETV
130	891228 1860 113812 116979645 2 60 59 2.6377290236039 7.9961111091031 457.83727329159 3593.0379918967
vector 137  Scenario2_SlowSpeed.node[19].veinsmobility  speed  ETV
137	900152 1864 113812 116979645 2 60 59 2.7469869994252 7.9968347064173 458.76566922429 3603.604560489
vector 144  Scenario2_SlowSpeed.node[20].veinsmobility  speed  ETV
144	908960 1861 113812 116979645 2 60 59 1.1784753591298 7.9991497904691 418.02976602123 3132.7521892799
vector 151  Scenario2_SlowSpeed.node[21].veinsmobility  speed  ETV
151	917389 1735 113812 116979645 2 60 59 0 7.8660231890738 72.756088588124 273.67354248521
vector 158  Scenario2_SlowSpeed.node[22].veinsmobility  speed  ETV
158	925899 1869 113812 116979645 2 60 59 0.21084801220309 7.9827426496916 315.16868092143 2119.3348809669
vector 165  Scenario2_SlowSpeed.node[23].veinsmobility  speed  ETV
165	934772 1856 113812 116979645 2 60 59 3.9197721995389 7.9969533819752 447.88903412011 3446.6967442743
vector 172  Scenario2_SlowSpeed.node[24].veinsmobility  speed  ETV
172	943641 1854 113812 116979645 2 60 59 2.8351305318164 7.9962929220102 442.11086139348 3400.3069055179
vector 179  Scenario2_SlowSpeed.node[25].veinsmobility  speed  ETV
179	952087 1678 113812 116979645 2 60 59 0 7.9924964052998 173.83294122206 992.89187190606
vector 186  Scenario2_SlowSpeed.node[26].veinsmobility  speed  ETV
186	960232 1732 113812 116979645 2 60 59 0 7.9688545951503 141.70523573527 712.29331777005
vector 193  Scenario2_SlowSpeed.node[27].veinsmobility  speed  ETV
193	968875 1841 113812 116979645 2 60 59 0 7.9811686708638 186.85151114147 1170.7986343793
vector 200  Scenario2_SlowSpeed.node[28].veinsmobility  speed  ETV
200	977721 1860 113812 116979645 2 60 59 2.7307990763654 7.9997683376307 442.38080541613 3407.0372010808
vector 207  Scenario2_SlowSpeed.node[29].veinsmobility  speed  ETV
207	986404 1794 113812 116979645 2 60 59 0 7.9938152769115 221.99426385937 1406.0907861502
vector 214  Scenario2_SlowSpeed.node[30].veinsmobility  speed  ETV
214	994856 1711 113812 116979645 2 60 59 0 7.9998285272717 339.82711110053 2609.4020121708
vector 221  Scenario2_SlowSpeed.node[31].veinsmobility  speed  ETV
221	1003495 1861 113812 116979645 2 60 59 2.6856465938386 7.9889043135103 447.5498680743 3442.6181160141
vector 228  Scenario2_SlowSpeed.node[32].veinsmobility  speed  ETV
228	1012109 1839 113812 116979645 2 60 59 0 5.3769411631288 74.553841898209 205.25364727383
vector 235  Scenario2_SlowSpeed.node[33].veinsmobility  speed  ETV
235	1020969 1862 113812 116979645 2 60 59 0.7030855698499 7.9954836057662 442.72608811734 3430.8897134721
vector 242  Scenario2_SlowSpeed.node[34].veinsmobility  speed  ETV
242	1029845 1865 113812 116979645 2 60 59 3.8002238431822 7.9991343247099 445.59908614951 3412.9800235886
vector 249  Scenario2_SlowSpeed.node[35].veinsmobility  speed  ETV
249	1045630 1451 113812 116979645 2 60 59 0 7.9990572348982 124.05654795491 748.45364400555
vector 256  Scenario2_SlowSpeed.node[36].veinsmobility  speed  ETV
256	1061841 1579 113812 116979645 2 60 59 0 7.9981709773303 247.59795285184 1839.9756855605
vector 263  Scenario2_SlowSpeed.node[37].veinsmobility  speed  ETV
263	1078588 1864 113812 116979645 2 60 59 3.7534727095737 7.9941820279253 436.63195047943 3319.0501110986
vector 270  Scenario2_SlowSpeed.node[38].veinsmobility  speed  ETV
270	1121991 1862 113812 116979645 2 60 59 3.8436146157379 7.9995381524297 460.00610814263 3612.8548868763
vector 277  Scenario2_SlowSpeed.node[39].veinsmobility  speed  ETV
277	1164901 1652 113812 116979645 2 60 59 0 7.9846085055731 171.82766840608 986.339232857
vector 284  Scenario2_SlowSpeed.node[40].veinsmobility  speed  ETV
284	1215191 1451 113812 116979645 2 60 59 0 7.9595379156969 94.536629295323 483.91941066281
vector 291  Scenario2_SlowSpeed.node[41].veinsmobility  speed  ETV
291	1290468 1796 113812 116979645 2 60 59 0 7.9958217919152 331.59952531906 2402.1701557578
vector 298  Scenario2_SlowSpeed.node[42].veinsmobility  speed  ETV
298	1307418 1860 113812 116979645 2 60 59 3.9557966042657 7.9989277348551 462.17998322897 3640.4528159344
vector 305  Scenario2_SlowSpeed.node[43].veinsmobility  speed  ETV
305	1393973 1863 113812 116979645 2 60 59 0.46801411565994 7.9968504411075 395.93495235244 2946.5958960716
vector 312  Scenario2_SlowSpeed.node[44].veinsmobility  speed  ETV
312	1456332 1825 113812 116979645 2 60 59 0 7.9974273738777 337.76737938756 2414.6017777255
vector 319  Scenario2_SlowSpeed.node[45].veinsmobility  speed  ETV
319	1479627 1575 113812 116979645 2 60 59 0 7.9854954476468 135.56050270681 739.53500273705
vector 326  Scenario2_SlowSpeed.node[46].veinsmobility  speed  ETV
326	1516732 1834 113812 116979645 2 60 59 0 7.999651148105 251.06883451607 1678.0861424699
vector 506  Scenario2_SlowSpeed.node[72].veinsmobility  posx  ETV
506	1185323 1781 358914 116979645 3 60 58 109.25704685183 513.45 19283.218663096 7367182.0762
vector 507  Scenario2_SlowSpeed.node[72].veinsmobility  posy  ETV
507	1183944 1379 358914 116979645 3 60 58 489.73864672193 523.35 30197.032226153 15725593.858103
vector 513  Scenario2_SlowSpeed.node[73].veinsmobility  posx  ETV
513	1193771 1316 358914 116979645 3 60 58 513.45 520.05 30080.4 15600876.165
vector 514  Scenario2_SlowSpeed.node[73].veinsmobility  posy  ETV
514	1192025 1746 358914 116979645 3 60 58 216.09150590089 509.148 22757.81425824 9541802.6667
vector 520  Scenario2_SlowSpeed.node[74].veinsmobility  posx  ETV
520	1202330 1316 358914 116979645 3 60 58 513.45 520.05 30083.7 15604254.045
vector 521  Scenario2_SlowSpeed.node[74].veinsmobility  posy  ETV
521	1200499 1831 358914 116979645 3 60 58 27.396192443111 452.31622036908 13791.581473925 4278023.6929692
vector 527  Scenario2_SlowSpeed.node[75].veinsmobility  posx  ETV
527	1210968 1334 358914 116979645 3 60 58 513.45 523.35 30289.334914306 15818287.713396
vector 528  Scenario2_SlowSpeed.node[75].veinsmobility  posy  ETV
528	1209134 1834 358914 116979645 3 60 58 427.21446149065 861.2866563622 36880.249820145 24457431.57094
vector 534  Scenario2_SlowSpeed.node[76].veinsmobility  posx  ETV
534	1227179 1334 358914 116979645 3 60 58 516.75 523.35 30229.8851839 15756236.076507
vector 535  Scenario2_SlowSpeed.node[76].veinsmobility  posy  ETV
535	1225348 1831 358914 116979645 3 60 58 294.53677672899 726.2909026964 29068.150593628 15570157.649199
vector 541  Scenario2_SlowSpeed.node[77].veinsmobility  posx  ETV
541	1235408 1745 358914 116979645 3 60 58 147.63361073841 513.45 21164.888108923 8567184.1635331
vector 542  Scenario2_SlowSpeed.node[77].veinsmobility  posy  ETV
542	1233984 1424 358914 116979645 3 60 58 459.46415430006 523.35 29884.830802583 15418465.719826
vector 548  Scenario2_SlowSpeed.node[78].veinsmobility  posx  ETV
548	1244451 1343 358914 116979645 3 60 58 513.45 520.05 30131.604119756 15653808.274513
vector 549  Scenario2_SlowSpeed.node[78].veinsmobility  posy  ETV
549	1242622 1829 358914 116979645 3 60 58 500.43849467808 914.19282638196 40061.253022439 28634731.706399
vector 555  Scenario2_SlowSpeed.node[79].veinsmobility  posx  ETV
555	1252775 1482 358914 116979645 3 60 58 373.1186399391 513.45 28467.486878348 14068826.314622
vector 556  Scenario2_SlowSpeed.node[79].veinsmobility  posy  ETV
556	1251106 1669 358914 116979645 3 60 58 385.29625539637 523.35 27610.086828662 13254302.465916
vector 5  Scenario2_SlowSpeed.node[0].veinsmobility  acceleration  ETV
5	96315 1858 358914 116979645 3 60 58 -0.22473332790709 2.0378424129426 3.8594997770664 7.9775377877273
vector 6  Scenario2_SlowSpeed.node[0].veinsmobility  co2emission  ETV
6	94617 1698 358914 116979645 3 60 58 0.973 5.1540144616109 95.192546388853 178.33711682129
vector 12  Scenario2_SlowSpeed.node[1].veinsmobility  acceleration  ETV
12	104716 1913 358914 116979645 3 60 58 -0.11038421904203 2.1905452468945 4.0896481627483 8.8338986768273
vector 13  Scenario2_SlowSpeed.node[1].veinsmobility  co2emission  ETV
13	102942 1774 358914 116979645 3 60 58 1.3256248286193 5.2999031698691 95.948474722952 181.94092634577
vector 19  Scenario2_SlowSpeed.node[2].veinsmobility  acceleration  ETV
19	113256 1903 358914 116979645 3 60 58 -1.1863482597944 1.9583487316654 4.0501263179958 10.899155549288
vector 20  Scenario2_SlowSpeed.node[2].veinsmobility  co2emission  ETV
20	111504 1752 358914 116979645 3 60 58 0.973 5.1795054926604 97.560120482686 189.25247885778
vector 26  Scenario2_SlowSpeed.node[3].veinsmobility  acceleration  ETV
26	193354 1910 358914 116979645 3 60 58 -1.122894828272 1.8258900123578 -3.326096919669 13.185277063478
vector 27  Scenario2_SlowSpeed.node[3].veinsmobility  co2emission  ETV
27	191673 1681 358914 116979645 3 60 58 0.973 4.5613906246985 90.619815672181 160.51563156453
vector 33  Scenario2_SlowSpeed.node[4].veinsmobility  acceleration  ETV
33	273336 1788 358914 116979645 3 60 58 -1.8978782166217 0.65759349781089 5.1116801858824 19.642439038067
vector 34  Scenario2_SlowSpeed.node[4].veinsmobility  co2emission  ETV
34	271704 1632 358914 116979645 3 60 58 0.973 2.758518405357 86.618680082818 142.16885105909
vector 40  Scenario2_SlowSpeed.node[5].veinsmobility  acceleration  ETV
40	349494 1713 358914 116979645 3 60 58 -2.7923739357915 2.1527070218464 -3.6557914111853 23.910894543349
vector 41  Scenario2_SlowSpeed.node[5].veinsmobility  co2emission  ETV
41	347908 1586 358914 116979645 3 60 58 0.973 4.8296904537292 85.259917822718 150.93342724393
vector 47  Scenario2_SlowSpeed.node[6].veinsmobility  acceleration  ETV
47	427725 1904 358914 116979645 3 60 58 -1.9237092602694 1.9535278939782 -2.9573492128436 14.232768172856
vector 48  Scenario2_SlowSpeed.node[6].veinsmobility  co2emission  ETV
48	426158 1567 358914 116979645 3 60 58 0.973 4.267958320945 77.089630480138 119.6135751577
vector 54  Scenario2_SlowSpeed.node[7].veinsmobility  acceleration  ETV
54	505434 1917 358914 116979645 3 60 58 -0.12053343149368 1.556158629342 4.3282641223987 6.3558285533798
vector 55  Scenario2_SlowSpeed.node[7].veinsmobility  co2emission  ETV
55	503658 1776 358914 116979645 3 60 58 1.3061301818217 4.3832819865862 95.852022752422 173.01252083596
vector 61  Scenario2_SlowSpeed.node[8].veinsmobility  acceleration  ETV
61	575572 1913 358914 116979645 3 60 58 -0.82274225008945 2.2072257999424 -1.9419018110623 12.940838920164
vector 62  Scenario2_SlowSpeed.node[8].veinsmobility  co2emission  ETV
62	573880 1692 358914 116979645 3 60 58 0.973 5.1390737866891 91.116998042675 168.73681613228
vector 68  Scenario2_SlowSpeed.node[9].veinsmobility  acceleration  ETV
68	647610 1917 358914 116979645 3 60 58 -0.10457275018319 2.122358843179 4.0534666424214 8.4519224637957
vector 69  Scenario2_SlowSpeed.node[9].veinsmobility  co2emission  ETV
69	645834 1776 358914 116979645 3 60 58 1.3364362222274 5.2863945353693 95.972213143982 181.61421310373
vector 75  Scenario2_SlowSpeed.node[10].veinsmobility  acceleration  ETV
75	714791 1913 358914 116979645 3 60 58 -0.72971797423676 1.8794109122083 4.264999102757 8.6774393597024
vector 76  Scenario2_SlowSpeed.node[10].veinsmobility  co2emission  ETV
76	713027 1764 358914 116979645 3 60 58 0.973 4.8595533457499 96.691722761808 181.19013195415
vector 82  Scenario2_SlowSpeed.node[11].veinsmobility  acceleration  ETV
82	778551 1714 358914 116979645 3 60 58 -2.6237263273566 2.0887350653158 5.1196054407689 39.384308676827
vector 83  Scenario2_SlowSpeed.node[11].veinsmobility  co2emission  ETV
83	776951 1600 358914 116979645 3 60 58 0.973 4.8988598111896 96.558460676442 207.57355002323
vector 89  Scenario2_SlowSpeed.node[12].veinsmobility  acceleration  ETV
89	837778 1913 358914 116979645 3 60 58 -0.46641761952669 1.7066776989607 4.0632770512384 5.5503921708863
vector 90  Scenario2_SlowSpeed.node[12].veinsmobility  co2emission  ETV
90	836026 1752 358914 116979645 3 60 58 0.973 3.6959291938214 95.375354877543 168.22629489023
vector 96  Scenario2_SlowSpeed.node[13].veinsmobility  acceleration  ETV
96	846404 1918 358914 116979645 3 60 58 -0.10254382550251 2.0651534931688 4.2051071626225 7.9538288193346
vector 97  Scenario2_SlowSpeed.node[13].veinsmobility  co2emission  ETV
97	844632 1772 358914 116979645 3 60 58 1.3408599333251 4.9276576698313 95.968863519664 178.09407188446
vector 103  Scenario2_SlowSpeed.node[14].veinsmobility  acceleration  ETV
103	854942 1884 358914 116979645 3 60 58 -1.3463071776826 2.2244494700362 -3.7894113107566 16.934353816303
vector 104  Scenario2_SlowSpeed.node[14].veinsmobility  co2emission  ETV
104	853257 1685 358914 116979645 3 60 58 0.973 5.3393625464474 87.37545663481 161.00088755652
vector 110  Scenario2_SlowSpeed.node[15].veinsmobility  acceleration  ETV
110	863392 1904 358914 116979645 3 60 58 -4.5 1.9906797306892 -3.4990516670957 44.764632593589
vector 111  Scenario2_SlowSpeed.node[15].veinsmobility  co2emission  ETV
111	861804 1588 358914 116979645 3 60 58 0.973 4.9759419774749 75.368954181861 127.59613378434
vector 117  Scenario2_SlowSpeed.node[16].veinsmobility  acceleration  ETV
117	872020 1818 358914 116979645 3 60 58 -2.4452587383966 2.0291031939513 -3.4675699174894 34.991017197874
vector 118  Scenario2_SlowSpeed.node[16].veinsmobility  co2emission  ETV
118	870396 1624 358914 116979645 3 60 58 0.973 5.1051557239831 92.209654394933 182.59688785155
vector 124  Scenario2_SlowSpeed.node[17].veinsmobility  acceleration  ETV
124	880386 1924 358914 116979645 3 60 58 -1.9518236688181 1.9672634236701 -2.6942799909062 44.961205603481
vector 125  Scenario2_SlowSpeed.node[17].veinsmobility  co2emission  ETV
125	878773 1613 358914 116979645 3 60 58 0.973 5.0299575285207 96.683065522266 214.73133470816
vector 131  Scenario2_SlowSpeed.node[18].veinsmobility  acceleration  ETV
131	889253 1975 358914 116979645 3 60 58 -0.11203438877128 1.9054944779584 5.3480598707267 9.6304786488438
vector 132  Scenario2_SlowSpeed.node[18].veinsmobility  co2emission  ETV
132	887418 1835 358914 116979645 3 60 58 1.3223008063967 4.5542257214239 96.961519753214 181.73169156927
vector 138  Scenario2_SlowSpeed.node[19].veinsmobility  acceleration  ETV
138	898168 1984 358914 116979645 3 60 58 -0.09099373116158 2.0794576383522 5.1333034304534 9.6056109000319
vector 139  Scenario2_SlowSpeed.node[19].veinsmobility  co2emission  ETV
139	896336 1832 358914 116979645 3 60 58 1.3631761388801 4.760697120825 96.734147109978 180.38137365064
vector 145  Scenario2_SlowSpeed.node[20].veinsmobility  acceleration  ETV
145	907002 1958 358914 116979645 3 60 58 -1.9800831427599 2.0540950911143 -1.8495387485314 18.937235285955
vector 146  Scenario2_SlowSpeed.node[20].veinsmobility  co2emission  ETV
146	905267 1735 358914 116979645 3 60 58 0.973 4.8252002146717 94.023595282131 176.75801635306
vector 152  Scenario2_SlowSpeed.node[21].veinsmobility  acceleration  ETV
152	915638 1751 358914 116979645 3 60 58 -4.5 1.9197271838508 -1.6601570469617 49.839881525631
vector 153  Scenario2_SlowSpeed.node[21].veinsmobility  co2emission  ETV
153	914053 1585 358914 116979645 3 60 58 0.973 5.1736672761766 74.355483710608 125.51389083164
vector 159  Scenario2_SlowSpeed.node[22].veinsmobility  acceleration  ETV
159	923965 1934 358914 116979645 3 60 58 -2.0147678701725 1.9737747708103 2.7848533965209 34.792808411011
vector 160  Scenario2_SlowSpeed.node[22].veinsmobility  co2emission  ETV
160	922357 1608 358914 116979645 3 60 58 0.973 4.6410290859334 96.088198586303 210.06231650014
vector 166  Scenario2_SlowSpeed.node[23].veinsmobility  acceleration  ETV
166	932819 1953 358914 116979645 3 60 58 -1.4525530893272 2.0091581211518 3.9927135260893 11.017288275126
vector 167  Scenario2_SlowSpeed.node[23].veinsmobility  co2emission  ETV
167	931004 1815 358914 116979645 3 60 58 0.973 4.2860949452459 97.23898138083 181.04637552964
vector 173  Scenario2_SlowSpeed.node[24].veinsmobility  acceleration  ETV
173	941680 1961 358914 116979645 3 60 58 -1.4529478026463 2.128872625106 5.1330947646817 12.270266392142
vector 174  Scenario2_SlowSpeed.node[24].veinsmobility  co2emission  ETV
174	939871 1809 358914 116979645 3 60 58 0.973 3.9075862964506 97.105014462846 178.0830432874
vector 180  Scenario2_SlowSpeed.node[25].veinsmobility  acceleration  ETV
180	950373 1714 358914 116979645 3 60 58 -2.1260021539187 0.67742338858545 6.6827940113163 25.115806903624
vector 181  Scenario2_SlowSpeed.node[25].veinsmobility  co2emission  ETV
181	948743 1630 358914 116979645 3 60 58 0.973 2.6696407897889 86.835989547916 146.88191892642
vector 187  Scenario2_SlowSpeed.node[26].veinsmobility  acceleration  ETV
187	958428 1804 358914 116979645 3 60 58 -1.6527177298027 1.9900638160552 -1.8085479063414 21.769412691787
vector 188  Scenario2_SlowSpeed.node[26].veinsmobility  co2emission  ETV
188	956893 1535 358914 116979645 3 60 58 0.973 4.727203901159 74.925658480201 125.49675473577
vector 194  Scenario2_SlowSpeed.node[27].veinsmobility  acceleration  ETV
194	966932 1943 358914 116979645 3 60 58 -3.7595346708985 2.0524605136644 -1.4189161360338 32.835053613575
vector 195  Scenario2_SlowSpeed.node[27].veinsmobility  co2emission  ETV
195	965189 1743 358914 116979645 3 60 58 0.973 4.8823539520864 81.511094532302 142.78059297675
vector 201  Scenario2_SlowSpeed.node[28].veinsmobility  acceleration  ETV
201	975762 1959 358914 116979645 3 60 58 -3.2480044146591 1.8810056384676 5.2143532650693 29.411077970533
vector 202  Scenario2_SlowSpeed.node[28].veinsmobility  co2emission  ETV
202	973953 1809 358914 116979645 3 60 58 0.973 5.1095275971661 102.33163836977 219.11251287933
vector 208  Scenario2_SlowSpeed.node[29].veinsmobility  acceleration  ETV
208	984539 1865 358914 116979645 3 60 58 -1.4296069619981 0.65836759774014 4.5451277832168 15.891494762324
vector 209  Scenario2_SlowSpeed.node[29].veinsmobility  co2emission  ETV
209	982832 1707 358914 116979645 3 60 58 0.973 2.6474792984994 85.292530461777 137.01305416941
vector 215  Scenario2_SlowSpeed.node[30].veinsmobility  acceleration  ETV
215	993054 1802 358914 116979645 3 60 58 -2.6202316028359 1.9428859233833 -2.6830987371855 23.712322388127
vector 216  Scenario2_SlowSpeed.node[30].veinsmobility  co2emission  ETV
216	991380 1674 358914 116979645 3 60 58 0.973 4.4733825844955 87.407942877587 157.55196537069
vector 222  Scenario2_SlowSpeed.node[31].veinsmobility  acceleration  ETV
222	1001538 1957 358914 116979645 3 60 58 -1.282434493594 1.8596407763078 5.2536079644783 9.8461557946045
vector 223  Scenario2_SlowSpeed.node[31].veinsmobility  co2emission  ETV
223	999724 1814 358914 116979645 3 60 58 0.973 4.0725706592733 97.548849538607 178.47128101104
vector 229  Scenario2_SlowSpeed.node[32].veinsmobility  acceleration  ETV
229	1010213 1896 358914 116979645 3 60 58 -1.7731438125962 2.0758939225124 -2.6825295369422 17.90920218266
vector 230  Scenario2_SlowSpeed.node[32].veinsmobility  co2emission  ETV
230	1008608 1605 358914 116979645 3 60 58 0.973 3.3569884733187 68.97389754896 94.254090480978
vector 236  Scenario2_SlowSpeed.node[33].veinsmobility  acceleration  ETV
236	1019006 1963 358914 116979645 3 60 58 -0.45615151682197 1.9309731653566 7.2845816056606 12.236944435057
vector 237  Scenario2_SlowSpeed.node[33].veinsmobility  co2emission  ETV
237	1017186 1820 358914 116979645 3 60 58 0.973 4.0347072595938 97.374916046768 177.86327020718
vector 243  Scenario2_SlowSpeed.node[34].veinsmobility  acceleration  ETV
243	1027888 1957 358914 116979645 3 60 58 -1.7546872166028 1.989081373997 4.1989104815277 13.902831337549
vector 244  Scenario2_SlowSpeed.node[34].veinsmobility  co2emission  ETV
244	1026094 1794 358914 116979645 3 60 58 0.973 5.2198011572892 98.505113919818 191.79127180973
vector 250  Scenario2_SlowSpeed.node[35].veinsmobility  acceleration  ETV
250	1044160 1470 358914 116979645 3 60 58 -1.761449163155 0.72982673397235 6.830726609154 11.974675966113
vector 251  Scenario2_SlowSpeed.node[35].veinsmobility  co2emission  ETV
251	1042664 1496 358914 116979645 3 60 58 0.973 2.7632877932695 76.288275259069 113.67017665404
vector 257  Scenario2_SlowSpeed.node[36].veinsmobility  acceleration  ETV
257	1060215 1626 358914 116979645 3 60 58 -2.122957472347 2.2234353588018 4.0289419576799 35.08099104856
vector 258  Scenario2_SlowSpeed.node[36].veinsmobility  co2emission  ETV
258	1058659 1556 358914 116979645 3 60 58 0.973 5.1088816218879 88.740085993928 188.54569898531
vector 264  Scenario2_SlowSpeed.node[37].veinsmobility  acceleration  ETV
264	1076627 1961 358914 116979645 3 60 58 -1.4033305056189 2.1654606813029 4.1703808196779 12.578101482313
vector 265  Scenario2_SlowSpeed.node[37].veinsmobility  co2emission  ETV
265	1074827 1800 358914 116979645 3 60 58 0.973 5.1429338819437 96.495432136364 185.1677654349
vector 271  Scenario2_SlowSpeed.node[38].veinsmobility  acceleration  ETV
271	1120010 1981 358914 116979645 3 60 58 -0.098340848339721 1.5759501149575 4.0666236561066 5.9317707787107
vector 272  Scenario2_SlowSpeed.node[38].veinsmobility  co2emission  ETV
272	1118183 1827 358914 116979645 3 60 58 1.3483485806117 4.2744087291165 95.486677327521 171.71600874883
vector 278  Scenario2_SlowSpeed.node[39].veinsmobility  acceleration  ETV
278	1163216 1685 358914 116979645 3 60 58 -1.1883704995914 0.68313230515458 6.7637855258244 15.939662285609
vector 279  Scenario2_SlowSpeed.node[39].veinsmobility  co2emission  ETV
279	1161641 1575 358914 116979645 3 60 58 0.973 2.5895187818782 83.697750644493 137.63600179954
vector 285  Scenario2_SlowSpeed.node[40].veinsmobility  acceleration  ETV
285	1213718 1473 358914 116979645 3 60 58 -1.8540805794339 1.987623366646 -3.9414583031813 22.942518006564
vector 286  Scenario2_SlowSpeed.node[40].veinsmobility  co2emission  ETV
286	1212302 1416 358914 116979645 3 60 58 0.973 5.2713771709401 70.37111183342 115.64684831193
vector 292  Scenario2_SlowSpeed.node[41].veinsmobility  acceleration  ETV
292	1288594 1874 358914 116979645 3 60 58 -3.7922634956117 2.0143767090887 5.4766034309146 74.193062600835
vector 293  Scenario2_SlowSpeed.node[41].veinsmobility  co2emission  ETV
293	1286890 1704 358914 116979645 3 60 58 0.973 5.2369189960507 104.80344365279 241.52146745045
vector 299  Scenario2_SlowSpeed.node[42].veinsmobility  acceleration  ETV
299	1305438 1980 358914 116979645 3 60 58 -0.11874683173373 1.9786985100852 3.9768199081581 7.4748013529811
vector 300  Scenario2_SlowSpeed.node[42].veinsmobility  co2emission  ETV
300	1303611 1827 358914 116979645 3 60 58 1.309796163797 5.2325275355 95.733862318908 177.56924585442
vector 306  Scenario2_SlowSpeed.node[43].veinsmobility  acceleration  ETV
306	1392029 1944 358914 116979645 3 60 58 -1.6210476983931 2.0070330325328 4.0749528955477 18.461488322874
vector 307  Scenario2_SlowSpeed.node[43].veinsmobility  co2emission  ETV
307	1390277 1752 358914 116979645 3 60 58 0.973 4.2234028169926 94.731173314718 173.13062434791
vector 313  Scenario2_SlowSpeed.node[44].veinsmobility  acceleration  ETV
313	1454429 1903 358914 116979645 3 60 58 -2.408576123248 1.9034681440843 5.2221568831198 36.760232394205
vector 314  Scenario2_SlowSpeed.node[44].veinsmobility  co2emission  ETV
314	1452727 1702 358914 116979645 3 60 58 0.973 4.6318476489985 97.542770885277 200.42304617941
vector 320  Scenario2_SlowSpeed.node[45].veinsmobility  acceleration  ETV
320	1478004 1623 358914 116979645 3 60 58 -1.8195726891453 0.66231845444069 6.7587675000837 20.050475809019
vector 321  Scenario2_SlowSpeed.node[45].veinsmobility  co2emission  ETV
321	1476430 1574 358914 116979645 3 60 58 0.973 2.5984603132667 80.865778932949 127.16039665736
vector 327  Scenario2_SlowSpeed.node[46].veinsmobility  acceleration  ETV
327	1514813 1919 358914 116979645 3 60 58 -2.2813488385423 0.65904702475295 4.3068127958841 20.542209884079
vector 328  Scenario2_SlowSpeed.node[46].veinsmobility  co2emission  ETV
328	1513073 1740 358914 116979645 3 60 58 0.973 2.7009943922082 87.286222304902 141.65977677532
vector 333  Scenario2_SlowSpeed.node[47].veinsmobility  speed  ETV
333	131076 1846 358914 116979645 3 60 58 0.43421228121151 7.9955997145083 270.95500557867 1798.4329388287
vector 340  Scenario2_SlowSpeed.node[48].veinsmobility  speed  ETV
340	217238 1832 358914 116979645 3 60 58 0.55958808761422 7.9944861674053 341.29794754485 2377.5469037316
vector 347  Scenario2_SlowSpeed.node[49].veinsmobility  speed  ETV
347	253015 1831 358914 116979645 3 60 58 4.128183642186 7.9991118872352 454.4893727823 3578.3446251418
vector 354  Scenario2_SlowSpeed.node[50].veinsmobility  speed  ETV
354	316731 1517 358914 116979645 3 60 58 0 7.9887561947617 154.22500331672 908.62852263174
vector 361  Scenario2_SlowSpeed.node[51].veinsmobility  speed  ETV
361	387534 1836 358914 116979645 3 60 58 4.0032678266399 7.9965043938183 452.65830066944 3552.5910411613
vector 368  Scenario2_SlowSpeed.node[52].veinsmobility  speed  ETV
368	470665 1592 358914 116979645 3 60 58 0 7.9239647309814 166.70752507509 964.17497231419
vector 375  Scenario2_SlowSpeed.node[53].veinsmobility  speed  ETV
375	492195 1847 358914 116979645 3 60 58 0.42930515267712 7.999937741356 273.4579686148 1869.8889349339
vector 382  Scenario2_SlowSpeed.node[54].veinsmobility  speed  ETV
382	615450 1837 358914 116979645 3 60 58 0.50055192669016 7.9963758807071 339.45658599852 2440.614510716
vector 389  Scenario2_SlowSpeed.node[55].veinsmobility  speed  ETV
389	635346 1704 358914 116979645 3 60 58 0 7.9994242065307 198.91586643573 1228.5641623783
vector 396  Scenario2_SlowSpeed.node[56].veinsmobility  speed  ETV
396	686405 1830 358914 116979645 3 60 58 3.288878560522 7.9992284427932 437.5079834254 3356.4836154416
vector 403  Scenario2_SlowSpeed.node[57].veinsmobility  speed  ETV
403	735977 1829 358914 116979645 3 60 58 3.3464291872341 7.9971116283815 437.3535172849 3359.7285032677
vector 410  Scenario2_SlowSpeed.node[58].veinsmobility  speed  ETV
410	802545 1362 358914 116979645 3 60 58 0 7.9953941268264 146.97305314373 1088.1801831655
vector 417  Scenario2_SlowSpeed.node[59].veinsmobility  speed  ETV
417	1037913 1554 358914 116979645 3 60 58 0 7.9015984081454 93.386962907302 398.79840968574
vector 424  Scenario2_SlowSpeed.node[60].veinsmobility  speed  ETV
424	1053682 1798 358914 116979645 3 60 58 0 7.9930569713004 372.78183390899 2807.5621956339
vector 431  Scenario2_SlowSpeed.node[61].veinsmobility  speed  ETV
431	1069867 1765 358914 116979645 3 60 58 0 7.3752109016131 82.600390211692 347.22130106822
vector 438  Scenario2_SlowSpeed.node[62].veinsmobility  speed  ETV
438	1087287 1807 358914 116979645 3 60 58 0 7.9928612200473 384.294946333 2906.7056878003
vector 445  Scenario2_SlowSpeed.node[63].veinsmobility  speed  ETV
445	1095795 1868 358914 116979645 3 60 58 4.5370781051279e-14 7.9880940223648 165.73477534189 946.98313087182
vector 452  Scenario2_SlowSpeed.node[64].veinsmobility  speed  ETV
452	1104413 1868 358914 116979645 3 60 58 4.5631158399626e-14 7.9878495393856 184.91908328365 1160.8694786847
vector 459  Scenario2_SlowSpeed.node[65].veinsmobility  speed  ETV
459	1113130 1827 358914 116979645 3 60 58 0.99661806728129 7.9959100377071 383.35085573324 2793.1008432505
vector 466  Scenario2_SlowSpeed.node[66].veinsmobility  speed  ETV
466	1130758 1840 358914 116979645 3 60 58 2.2422993606342e-05 7.9996032395819 400.03965708922 3046.1922950476
vector 473  Scenario2_SlowSpeed.node[67].veinsmobility  speed  ETV
473	1139495 1829 358914 116979645 3 60 58 2.7177946115121 7.9915939619835 432.38266158603 3308.1977828248
vector 480  Scenario2_SlowSpeed.node[68].veinsmobility  speed  ETV
480	1148046 1804 358914 116979645 3 60 58 0 7.6014129096616 162.56511217072 748.98827016149
vector 487  Scenario2_SlowSpeed.node[69].veinsmobility  speed  ETV
487	1156628 1790 358914 116979645 3 60 58 0 7.9507456207556 318.49471545373 2215.9900588158
vector 494  Scenario2_SlowSpeed.node[70].veinsmobility  speed  ETV
494	1173401 1832 358914 116979645 3 60 58 2.2640141393428 7.9992422943306 444.26913347655 3451.2326765025
vector 501  Scenario2_SlowSpeed.node[71].veinsmobility  speed  ETV
501	1532418 1675 358914 116979645 3 60 58 0 7.9981488522608 166.6473702329 907.09238176071
vector 562  Scenario2_SlowSpeed.node[80].veinsmobility  posx  ETV
562	1261083 1296 667328 116979645 4 60 57 513.45 516.75 29438.25 15203743.7625
vector 563  Scenario2_SlowSpeed.node[80].veinsmobility  posy  ETV
563	1259279 1804 667328 116979645 4 60 57 381.5216856369 437.85934314291 24123.986377687 10223857.644755
vector 569  Scenario2_SlowSpeed.node[81].veinsmobility  posx  ETV
569	1269587 1341 667328 116979645 4 60 57 516.75 520.05 29623.770031673 15395977.647567
vector 570  Scenario2_SlowSpeed.node[81].veinsmobility  posy  ETV
570	1267782 1805 667328 116979645 4 60 57 513.80113344004 937.61158246665 40820.836662562 30188108.19782
vector 576  Scenario2_SlowSpeed.node[82].veinsmobility  posx  ETV
576	1277302 1296 667328 116979645 4 60 57 513.45 516.75 29438.25 15203743.7625
vector 577  Scenario2_SlowSpeed.node[82].veinsmobility  posy  ETV
577	1275581 1721 667328 116979645 4 60 57 411.81533127067 503.147 26932.648788958 12761330.10704
vector 583  Scenario2_SlowSpeed.node[83].veinsmobility  posx  ETV
583	1285594 1296 667328 116979645 4 60 57 513.45 516.75 29418.45 15183345.8025
vector 584  Scenario2_SlowSpeed.node[83].veinsmobility  posy  ETV
584	1283790 1804 667328 116979645 4 60 57 144.73530532261 290.50395364754 14152.45272015 3616187.4659967
vector 590  Scenario2_SlowSpeed.node[84].veinsmobility  posx  ETV
590	1302315 1296 667328 116979645 4 60 57 513.45 516.75 29441.55 15207143.4225
vector 591  Scenario2_SlowSpeed.node[84].veinsmobility  posy  ETV
591	1300512 1803 667328 116979645 4 60 57 369.97836124469 433.49054817672 23837.631122452 9986864.6966032
vector 597  Scenario2_SlowSpeed.node[85].veinsmobility  posx  ETV
597	1318673 1296 667328 116979645 4 60 57 513.45 516.75 29438.25 15203743.7625
vector 598  Scenario2_SlowSpeed.node[85].veinsmobility  posy  ETV
598	1316866 1807 667328 116979645 4 60 57 328.01461626386 394.88642012795 21585.604415831 8195798.0588008
vector 334  Scenario2_SlowSpeed.node[47].veinsmobility  acceleration  ETV
334	129163 1913 667328 116979645 4 60 57 -2.4049472333817 0.6373020789586 2.6132811134718 21.790395919158
vector 335  Scenario2_SlowSpeed.node[47].veinsmobility  co2emission  ETV
335	127442 1721 667328 116979645 4 60 57 0.973 2.6274940820367 88.936329389505 150.64504434347
vector 341  Scenario2_SlowSpeed.node[48].veinsmobility  acceleration  ETV
341	215351 1887 667328 116979645 4 60 57 -2.5776205373693 1.94221532322 3.9192299700844 45.156746337694
vector 342  Scenario2_SlowSpeed.node[48].veinsmobility  co2emission  ETV
342	213647 1704 667328 116979645 4 60 57 0.973 4.3589039534134 100.11539423118 206.25634325629
vector 348  Scenario2_SlowSpeed.node[49].veinsmobility  acceleration  ETV
348	251062 1953 667328 116979645 4 60 57 -0.097632855291013 2.0866294606519 3.7981752134462 7.6128309398589
vector 349  Scenario2_SlowSpeed.node[49].veinsmobility  co2emission  ETV
349	249263 1799 667328 116979645 4 60 57 1.3500122758176 4.9329997836595 94.033149115318 175.6178861575
vector 355  Scenario2_SlowSpeed.node[50].veinsmobility  acceleration  ETV
355	315184 1547 667328 116979645 4 60 57 -2.2708360553463 0.65060185198672 6.7366628404999 20.690119506809
vector 356  Scenario2_SlowSpeed.node[50].veinsmobility  co2emission  ETV
356	313656 1528 667328 116979645 4 60 57 0.973 2.6035410031891 81.682451808125 133.92694969301
vector 362  Scenario2_SlowSpeed.node[51].veinsmobility  acceleration  ETV
362	385592 1942 667328 116979645 4 60 57 -0.60753999474745 2.0446669776877 3.9932365671784 9.62880333855
vector 363  Scenario2_SlowSpeed.node[51].veinsmobility  co2emission  ETV
363	383807 1785 667328 116979645 4 60 57 0.973 4.947127072455 95.321367348007 184.62340790659
vector 369  Scenario2_SlowSpeed.node[52].veinsmobility  acceleration  ETV
369	469043 1622 667328 116979645 4 60 57 -1.5194471242331 0.66098499149182 6.6953552583946 17.208906491112
vector 370  Scenario2_SlowSpeed.node[52].veinsmobility  co2emission  ETV
370	467496 1547 667328 116979645 4 60 57 0.973 2.716139330036 82.374276018135 136.51199754981
vector 376  Scenario2_SlowSpeed.node[53].veinsmobility  acceleration  ETV
376	490266 1929 667328 116979645 4 60 57 -2.2553691996719 0.68148814985529 3.1964765804012 19.632774600461
vector 377  Scenario2_SlowSpeed.node[53].veinsmobility  co2emission  ETV
377	488513 1753 667328 116979645 4 60 57 0.973 2.7929282881595 86.832682084299 140.90432119178
vector 383  Scenario2_SlowSpeed.node[54].veinsmobility  acceleration  ETV
383	613524 1926 667328 116979645 4 60 57 -2.5700016554303 0.67055059749633 2.1901410477693 18.774038027679
vector 384  Scenario2_SlowSpeed.node[54].veinsmobility  co2emission  ETV
384	611788 1736 667328 116979645 4 60 57 0.973 2.7375631191324 88.766771825957 145.58500001597
vector 390  Scenario2_SlowSpeed.node[55].veinsmobility  acceleration  ETV
390	633586 1760 667328 116979645 4 60 57 -1.7726716904226 0.67375901133753 6.1130944313921 18.796398236547
vector 391  Scenario2_SlowSpeed.node[55].veinsmobility  co2emission  ETV
391	631950 1636 667328 116979645 4 60 57 0.973 2.6846970589741 85.004148028613 141.25210439277
vector 397  Scenario2_SlowSpeed.node[56].veinsmobility  acceleration  ETV
397	684470 1935 667328 116979645 4 60 57 -1.2648739903259 1.7743496619398 4.6725851428328 12.048680568955
vector 398  Scenario2_SlowSpeed.node[56].veinsmobility  co2emission  ETV
398	682696 1774 667328 116979645 4 60 57 0.973 4.3514134699614 96.182975299747 184.57618308902
vector 404  Scenario2_SlowSpeed.node[57].veinsmobility  acceleration  ETV
404	734046 1931 667328 116979645 4 60 57 -2.3326434555579 1.8955579431914 4.3124206036676 26.068830839017
vector 405  Scenario2_SlowSpeed.node[57].veinsmobility  co2emission  ETV
405	732272 1774 667328 116979645 4 60 57 0.973 4.7961625333037 101.0358064706 211.05355500132
vector 411  Scenario2_SlowSpeed.node[58].veinsmobility  acceleration  ETV
411	801151 1394 667328 116979645 4 60 57 -1.2838926623046 2.3531378758276 4.6063558478187 19.143539898844
vector 412  Scenario2_SlowSpeed.node[58].veinsmobility  co2emission  ETV
412	799724 1427 667328 116979645 4 60 57 0.973 4.7375412572236 75.053569982509 130.91239697146
vector 418  Scenario2_SlowSpeed.node[59].veinsmobility  acceleration  ETV
418	1036316 1597 667328 116979645 4 60 57 -1.4639308557232 2.1681716927071 -3.1616020510857 16.515941150129
vector 419  Scenario2_SlowSpeed.node[59].veinsmobility  co2emission  ETV
419	1034959 1357 667328 116979645 4 60 57 0.973 5.5460821174953 66.559242735465 107.25916654666
vector 425  Scenario2_SlowSpeed.node[60].veinsmobility  acceleration  ETV
425	1051780 1902 667328 116979645 4 60 57 -0.90208304469621 2.174103573435 -3.6130632591076 13.828179985021
vector 426  Scenario2_SlowSpeed.node[60].veinsmobility  co2emission  ETV
426	1050124 1656 667328 116979645 4 60 57 0.973 5.5039125297345 85.888273655755 155.63871173211
vector 432  Scenario2_SlowSpeed.node[61].veinsmobility  acceleration  ETV
432	1068048 1819 667328 116979645 4 60 57 -1.4131763551182 2.0967680604826 -1.8283318313708 15.757732131585
vector 433  Scenario2_SlowSpeed.node[61].veinsmobility  co2emission  ETV
433	1066492 1556 667328 116979645 4 60 57 0.973 5.1809234641301 68.484097473591 107.76113519962
vector 439  Scenario2_SlowSpeed.node[62].veinsmobility  acceleration  ETV
439	1085363 1924 667328 116979645 4 60 57 -0.99313184978298 1.9143103672052 -3.051058396439 14.464246516244
vector 440  Scenario2_SlowSpeed.node[62].veinsmobility  co2emission  ETV
440	1083689 1674 667328 116979645 4 60 57 0.973 4.5610361113627 87.510311528285 156.93124375031
vector 446  Scenario2_SlowSpeed.node[63].veinsmobility  acceleration  ETV
446	1093862 1933 667328 116979645 4 60 57 -1.7971139183174 1.7584488421772 -2.1913271913529 14.239344077202
vector 447  Scenario2_SlowSpeed.node[63].veinsmobility  co2emission  ETV
447	1092278 1584 667328 116979645 4 60 57 0.973 3.416880062375 75.388787928796 112.15883548543
vector 453  Scenario2_SlowSpeed.node[64].veinsmobility  acceleration  ETV
453	1102482 1931 667328 116979645 4 60 57 -3.5291591689349 2.0002199415327 -1.9882499785493 27.811807012894
vector 454  Scenario2_SlowSpeed.node[64].veinsmobility  co2emission  ETV
454	1100856 1626 667328 116979645 4 60 57 0.973 4.4835873316201 78.749731931989 133.5617250287
vector 460  Scenario2_SlowSpeed.node[65].veinsmobility  acceleration  ETV
460	1111222 1908 667328 116979645 4 60 57 -1.0580387578879 1.8416912150406 4.8221614669529 12.77747894845
vector 461  Scenario2_SlowSpeed.node[65].veinsmobility  co2emission  ETV
461	1109479 1743 667328 116979645 4 60 57 0.973 3.5508656663785 92.765989056643 161.85015940479
vector 467  Scenario2_SlowSpeed.node[66].veinsmobility  acceleration  ETV
467	1128819 1939 667328 116979645 4 60 57 -1.4041648228188 2.0972854320053 -2.9361430381892 16.648707383951
vector 468  Scenario2_SlowSpeed.node[66].veinsmobility  co2emission  ETV
468	1127112 1707 667328 116979645 4 60 57 0.973 4.8249479946791 89.3801518494 163.32628419245
vector 474  Scenario2_SlowSpeed.node[67].veinsmobility  acceleration  ETV
474	1137572 1923 667328 116979645 4 60 57 -0.49068346027867 1.3191766180106 5.2718782560458 5.4531972637543
vector 475  Scenario2_SlowSpeed.node[67].veinsmobility  co2emission  ETV
475	1135785 1787 667328 116979645 4 60 57 0.973 3.5028608747331 93.962136071867 162.40408419807
vector 481  Scenario2_SlowSpeed.node[68].veinsmobility  acceleration  ETV
481	1146152 1894 667328 116979645 4 60 57 -2.0318780183107 1.7120349743412 0.59397459420723 24.516196768996
vector 482  Scenario2_SlowSpeed.node[68].veinsmobility  co2emission  ETV
482	1144531 1621 667328 116979645 4 60 57 0.973 4.2516304394084 78.190861656921 127.94853186526
vector 488  Scenario2_SlowSpeed.node[69].veinsmobility  acceleration  ETV
488	1154731 1897 667328 116979645 4 60 57 -1.5560555747943 2.2558627320177 5.7144337488003 23.561239596176
vector 489  Scenario2_SlowSpeed.node[69].veinsmobility  co2emission  ETV
489	1153046 1685 667328 116979645 4 60 57 0.973 3.928198243586 89.870688040613 155.73738719131
vector 495  Scenario2_SlowSpeed.node[70].veinsmobility  acceleration  ETV
495	1171461 1940 667328 116979645 4 60 57 -0.4147000166709 1.9102998795371 5.6382675851512 10.40156279744
vector 496  Scenario2_SlowSpeed.node[70].veinsmobility  co2emission  ETV
496	1169678 1783 667328 116979645 4 60 57 0.973 4.1927282501062 95.497420217272 178.99642442899
vector 502  Scenario2_SlowSpeed.node[71].veinsmobility  acceleration  ETV
502	1530699 1719 667328 116979645 4 60 57 -1.5569502077763 0.68039745812304 6.4798210981876 18.4835547851
vector 503  Scenario2_SlowSpeed.node[71].veinsmobility  co2emission  ETV
503	1529102 1597 667328 116979645 4 60 57 0.973 2.7069417367418 83.767532074329 139.53481028521
vector 508  Scenario2_SlowSpeed.node[72].veinsmobility  speed  ETV
508	1182139 1805 667328 116979645 4 60 57 4.0278290543699 7.9990690332185 446.43774273458 3515.0351965479
vector 515  Scenario2_SlowSpeed.node[73].veinsmobility  speed  ETV
515	1190368 1657 667328 116979645 4 60 57 0 7.9930978454277 291.9804915721 2122.499978229
vector 522  Scenario2_SlowSpeed.node[74].veinsmobility  speed  ETV
522	1198695 1804 667328 116979645 4 60 57 3.5176836492705 7.9987260985072 428.84844915709 3288.6993088433
vector 529  Scenario2_SlowSpeed.node[75].veinsmobility  speed  ETV
529	1207331 1803 667328 116979645 4 60 57 3.6123795926145 7.9987191497651 444.82870346179 3495.3898232988
vector 536  Scenario2_SlowSpeed.node[76].veinsmobility  speed  ETV
536	1223552 1796 667328 116979645 4 60 57 3.200249777116 7.9991614796617 443.50326961648 3480.8755509087
vector 543  Scenario2_SlowSpeed.node[77].veinsmobility  speed  ETV
543	1232181 1803 667328 116979645 4 60 57 2.4152160086432 7.9992785045248 439.18846621263 3430.7553103464
vector 550  Scenario2_SlowSpeed.node[78].veinsmobility  speed  ETV
550	1240821 1801 667328 116979645 4 60 57 1.6778472529908 7.9968126764882 426.00393056118 3283.6556706232
vector 557  Scenario2_SlowSpeed.node[79].veinsmobility  speed  ETV
557	1249290 1816 667328 116979645 4 60 57 0.12872760164984 7.9970870370069 287.63563639119 1977.1477207069
vector 604  Scenario2_SlowSpeed.node[86].veinsmobility  posx  ETV
604	1326684 1658 1031276 116979645 5 60 56 516.75 848.30581666087 36108.59668568 23950702.628694
vector 605  Scenario2_SlowSpeed.node[86].veinsmobility  posy  ETV
605	1325274 1410 1031276 116979645 5 60 56 434.03344403222 526.65 28664.414709208 14719528.414735
vector 611  Scenario2_SlowSpeed.node[87].veinsmobility  posx  ETV
611	1335367 1302 1031276 116979645 5 60 56 513.45 520.05 29072.244174563 15092935.567455
vector 612  Scenario2_SlowSpeed.node[87].veinsmobility  posy  ETV
612	1333592 1775 1031276 116979645 5 60 56 489.6152553994 850.46866786301 35935.868952551 23808756.758064
vector 618  Scenario2_SlowSpeed.node[88].veinsmobility  posx  ETV
618	1343388 1276 1031276 116979645 5 60 56 513.45 516.75 28928.1 14943512.52
vector 619  Scenario2_SlowSpeed.node[88].veinsmobility  posy  ETV
619	1341616 1772 1031276 116979645 5 60 56 401.86269079092 452.08990222676 24475.771701639 10706374.059798
vector 625  Scenario2_SlowSpeed.node[89].veinsmobility  posx  ETV
625	1350812 1276 1031276 116979645 5 60 56 513.45 520.05 28934.7 14950420.74
vector 626  Scenario2_SlowSpeed.node[89].veinsmobility  posy  ETV
626	1349036 1776 1031276 116979645 5 60 56 319.14798308699 399.04906802701 20760.341700932 7720752.5522644
vector 632  Scenario2_SlowSpeed.node[90].veinsmobility  posx  ETV
632	1358891 1276 1031276 116979645 5 60 56 513.45 516.75 28921.5 14936713.2
vector 633  Scenario2_SlowSpeed.node[90].veinsmobility  posy  ETV
633	1357116 1775 1031276 116979645 5 60 56 350.42131435657 419.48651602308 22455.621931781 9027825.5697348
vector 509  Scenario2_SlowSpeed.node[72].veinsmobility  acceleration  ETV
509	1180223 1916 1031276 116979645 5 60 56 -0.11314970969921 1.9881144879269 3.9270277736062 7.592771090331
vector 510  Scenario2_SlowSpeed.node[72].veinsmobility  co2emission  ETV
510	1178447 1776 1031276 116979645 5 60 56 1.3202712945079 5.0645250745152 92.645314757 173.28165125726
vector 516  Scenario2_SlowSpeed.node[73].veinsmobility  acceleration  ETV
516	1188643 1725 1031276 116979645 5 60 56 -2.1733364972978 2.1021115575777 -3.8349975460433 42.55450289374
vector 517  Scenario2_SlowSpeed.node[73].veinsmobility  co2emission  ETV
517	1187104 1539 1031276 116979645 5 60 56 0.973 5.2263230641188 89.917283645045 200.59668824647
vector 523  Scenario2_SlowSpeed.node[74].veinsmobility  acceleration  ETV
523	1196784 1911 1031276 116979645 5 60 56 -0.72087939203129 2.0861589232343 -0.68882456796442 9.7765244341965
vector 524  Scenario2_SlowSpeed.node[74].veinsmobility  co2emission  ETV
524	1195087 1697 1031276 116979645 5 60 56 0.973 4.6414675470269 87.913990227804 160.13291116453
vector 530  Scenario2_SlowSpeed.node[75].veinsmobility  acceleration  ETV
530	1205419 1912 1031276 116979645 5 60 56 -0.10159645665204 2.1710551595048 4.3108726851765 8.3733852489548
vector 531  Scenario2_SlowSpeed.node[75].veinsmobility  co2emission  ETV
531	1203646 1773 1031276 116979645 5 60 56 1.3430712129153 5.5184143502948 92.987686949131 175.4727850958
vector 537  Scenario2_SlowSpeed.node[76].veinsmobility  acceleration  ETV
537	1221644 1908 1031276 116979645 5 60 56 -0.25062073238096 2.0158477604121 4.7557442440686 8.376559544108
vector 538  Scenario2_SlowSpeed.node[76].veinsmobility  co2emission  ETV
538	1219881 1763 1031276 116979645 5 60 56 0.973 4.9398848615489 93.249519838496 173.25315739097
vector 544  Scenario2_SlowSpeed.node[77].veinsmobility  acceleration  ETV
544	1230275 1906 1031276 116979645 5 60 56 -1.5847269739415 1.9363540420192 5.5135127643382 14.08779333673
vector 545  Scenario2_SlowSpeed.node[77].veinsmobility  co2emission  ETV
545	1228513 1762 1031276 116979645 5 60 56 0.973 5.074990710004 96.266311494706 190.40215456051
vector 551  Scenario2_SlowSpeed.node[78].veinsmobility  acceleration  ETV
551	1238923 1898 1031276 116979645 5 60 56 -0.10121684897391 1.4639804358371 6.2449915312721 6.0092853967285
vector 552  Scenario2_SlowSpeed.node[78].veinsmobility  co2emission  ETV
552	1237153 1770 1031276 116979645 5 60 56 1.3437544741627 3.5378400220619 92.942509033523 161.48964636736
vector 558  Scenario2_SlowSpeed.node[79].veinsmobility  acceleration  ETV
558	1247411 1879 1031276 116979645 5 60 56 -2.0931256447333 2.1016330119781 5.5167182339105 46.624383782672
vector 559  Scenario2_SlowSpeed.node[79].veinsmobility  co2emission  ETV
559	1245794 1617 1031276 116979645 5 60 56 0.973 5.4154035877003 96.657522947072 236.23934891412
vector 564  Scenario2_SlowSpeed.node[80].veinsmobility  speed  ETV
564	1257565 1714 1031276 116979645 5 60 56 0 4.4704817215405 57.09918365552 137.06370529273
vector 571  Scenario2_SlowSpeed.node[81].veinsmobility  speed  ETV
571	1266005 1777 1031276 116979645 5 60 56 2.8800083594026 7.99741507194 434.80575940294 3410.3153488919
vector 578  Scenario2_SlowSpeed.node[82].veinsmobility  speed  ETV
578	1273963 1618 1031276 116979645 5 60 56 0 7.9860340967798 90.078007357167 430.90973370433
vector 585  Scenario2_SlowSpeed.node[83].veinsmobility  speed  ETV
585	1281967 1823 1031276 116979645 5 60 56 4.5655048837726e-14 7.9781904742518 145.97568600519 813.44067076613
vector 592  Scenario2_SlowSpeed.node[84].veinsmobility  speed  ETV
592	1298785 1727 1031276 116979645 5 60 56 0 6.5344769218654 62.934811832874 184.58436718763
vector 599  Scenario2_SlowSpeed.node[85].veinsmobility  speed  ETV
599	1315379 1487 1031276 116979645 5 60 56 0 5.7998816055476 67.546599437171 202.193310184
vector 639  Scenario2_SlowSpeed.node[91].veinsmobility  posx  ETV
639	1366373 1255 1445480 116979645 6 60 55 513.45 516.75 28309.05 14571092.4975
vector 640  Scenario2_SlowSpeed.node[91].veinsmobility  posy  ETV
640	1364703 1670 1445480 116979645 6 60 55 360.09539683952 499.646 25082.728560717 11538328.46349
vector 565  Scenario2_SlowSpeed.node[80].veinsmobility  acceleration  ETV
565	1255799 1766 1445480 116979645 6 60 55 -4.1560289023479 1.6155743091934 -2.0124735205234 24.38755957243
vector 566  Scenario2_SlowSpeed.node[80].veinsmobility  co2emission  ETV
566	1254257 1542 1445480 116979645 6 60 55 0.973 2.4383783440488 63.738541678081 77.806938897763
vector 572  Scenario2_SlowSpeed.node[81].veinsmobility  acceleration  ETV
572	1264121 1884 1445480 116979645 6 60 55 -0.10318119807867 2.0675189013151 5.0267806091624 9.0709716493309
vector 573  Scenario2_SlowSpeed.node[81].veinsmobility  co2emission  ETV
573	1262379 1742 1445480 116979645 6 60 55 1.3390865157715 4.3964049476235 91.993224174734 171.96793632936
vector 579  Scenario2_SlowSpeed.node[82].veinsmobility  acceleration  ETV
579	1272366 1597 1445480 116979645 6 60 55 -4.5 1.8420353832934 -3.888603513303 46.638623110587
vector 580  Scenario2_SlowSpeed.node[82].veinsmobility  co2emission  ETV
580	1270928 1438 1445480 116979645 6 60 55 0.973 4.435259011019 70.253717787825 113.82224964738
vector 586  Scenario2_SlowSpeed.node[83].veinsmobility  acceleration  ETV
586	1280095 1872 1445480 116979645 6 60 55 -3.6 2.0564988007001 -2.8125919053628 25.106240384639
vector 587  Scenario2_SlowSpeed.node[83].veinsmobility  co2emission  ETV
587	1278598 1497 1445480 116979645 6 60 55 0.973 4.7288716353414 72.37603587181 119.83625686958
vector 593  Scenario2_SlowSpeed.node[84].veinsmobility  acceleration  ETV
593	1297007 1778 1445480 116979645 6 60 55 -2.6461109347017 1.7087875550748 -3.3838708531486 17.594878200256
vector 594  Scenario2_SlowSpeed.node[84].veinsmobility  co2emission  ETV
594	1295472 1535 1445480 116979645 6 60 55 0.973 3.7215872352254 65.375457611285 90.968724249921
vector 600  Scenario2_SlowSpeed.node[85].veinsmobility  acceleration  ETV
600	1313869 1510 1445480 116979645 6 60 55 -2.4305846706997 2.1524380336958 -2.4410871689378 20.753659554502
vector 601  Scenario2_SlowSpeed.node[85].veinsmobility  co2emission  ETV
601	1312530 1339 1445480 116979645 6 60 55 0.973 3.7233796138068 63.326537711753 86.433177261907
vector 606  Scenario2_SlowSpeed.node[86].veinsmobility  speed  ETV
606	1323529 1745 1445480 116979645 6 60 55 2.7732682308613 7.9992804675549 426.55286765716 3347.3057013729
vector 613  Scenario2_SlowSpeed.node[87].veinsmobility  speed  ETV
613	1331845 1747 1445480 116979645 6 60 55 0.79995970642892 7.9918965647276 372.68975261301 2788.9418780134
vector 620  Scenario2_SlowSpeed.node[88].veinsmobility  speed  ETV
620	1339945 1671 1445480 116979645 6 60 55 0 4.7828883215805 51.773158126051 118.95125106669
vector 627  Scenario2_SlowSpeed.node[89].veinsmobility  speed  ETV
627	1347529 1507 1445480 116979645 6 60 55 0 6.8778052614833 89.058273264323 299.8955497145
vector 634  Scenario2_SlowSpeed.node[90].veinsmobility  speed  ETV
634	1355401 1715 1445480 116979645 6 60 55 0 5.6401307758491 69.145560382372 197.59740558821
vector 646  Scenario2_SlowSpeed.node[92].veinsmobility  posx  ETV
646	1373563 1234 1871861 116979645 7 60 54 513.45 516.75 27891.3 14406051.735
vector 647  Scenario2_SlowSpeed.node[92].veinsmobility  posy  ETV
647	1371844 1719 1871861 116979645 7 60 54 313.23265391109 386.22629710478 19798.520530808 7282992.7713865
vector 653  Scenario2_SlowSpeed.node[93].veinsmobility  posx  ETV
653	1380979 1234 1871861 116979645 7 60 54 513.45 520.05 27911.1 14426602.155
vector 654  Scenario2_SlowSpeed.node[93].veinsmobility  posy  ETV
654	1379277 1702 1871861 116979645 7 60 54 307.92315608183 384.66175736522 19201.002336066 6849881.9998366
vector 660  Scenario2_SlowSpeed.node[94].veinsmobility  posx  ETV
660	1389016 1261 1871861 116979645 7 60 54 513.45 520.05 28047.422012455 14567871.503086
vector 661  Scenario2_SlowSpeed.node[94].veinsmobility  posy  ETV
661	1387312 1704 1871861 116979645 7 60 54 507.12069461453 873.75889637897 36071.896459103 24837287.879324
vector 667  Scenario2_SlowSpeed.node[95].veinsmobility  posx  ETV
667	1405570 1234 1871861 116979645 7 60 54 513.45 516.75 27891.3 14406051.735
vector 668  Scenario2_SlowSpeed.node[95].veinsmobility  posy  ETV
668	1403854 1716 1871861 116979645 7 60 54 385.82035195483 429.98954817672 22512.737290343 9395263.6228806
vector 674  Scenario2_SlowSpeed.node[96].veinsmobility  posx  ETV
674	1644202 1714 1871861 116979645 7 60 54 633.29939361219 1022.2497393385 45407.725890922 38956378.960636
vector 675  Scenario2_SlowSpeed.node[96].veinsmobility  posy  ETV
675	1642968 1234 1871861 116979645 7 60 54 516.75 520.05 28076.1 14597565.255
vector 607  Scenario2_SlowSpeed.node[86].veinsmobility  acceleration  ETV
607	1321679 1850 1871861 116979645 7 60 54 -0.10576972203562 1.7732788943639 5.1898720907804 8.8872055296349
vector 608  Scenario2_SlowSpeed.node[86].veinsmobility  co2emission  ETV
608	1319969 1710 1871861 116979645 7 60 54 1.3343685025459 4.600334303796 90.605947103647 170.28036764357
vector 614  Scenario2_SlowSpeed.node[87].veinsmobility  acceleration  ETV
614	1330020 1825 1871861 116979645 7 60 54 -1.4378745620729 1.5141143883185 5.2248068768003 11.184427658296
vector 615  Scenario2_SlowSpeed.node[87].veinsmobility  co2emission  ETV
615	1328342 1678 1871861 116979645 7 60 54 0.973 3.0263936397432 88.303272011958 152.55283739836
vector 621  Scenario2_SlowSpeed.node[88].veinsmobility  acceleration  ETV
621	1338178 1767 1871861 116979645 7 60 54 -2.0514968464398 1.0264532434814 -1.4597222537722 11.220481513497
vector 622  Scenario2_SlowSpeed.node[88].veinsmobility  co2emission  ETV
622	1336669 1509 1871861 116979645 7 60 54 0.973 2.3435306312071 61.854282376943 74.622810963913
vector 628  Scenario2_SlowSpeed.node[89].veinsmobility  acceleration  ETV
628	1346019 1510 1871861 116979645 7 60 54 -1.9444444444444 1.88801671925 4.1902852088447 19.222202841829
vector 629  Scenario2_SlowSpeed.node[89].veinsmobility  co2emission  ETV
629	1344664 1355 1871861 116979645 7 60 54 0.973 3.720364703038 68.123740973717 107.95484089669
vector 635  Scenario2_SlowSpeed.node[90].veinsmobility  acceleration  ETV
635	1353618 1783 1871861 116979645 7 60 54 -1.6380412112091 1.9806100747691 -2.415131622191 15.234242998903
vector 636  Scenario2_SlowSpeed.node[90].veinsmobility  co2emission  ETV
636	1352088 1530 1871861 116979645 7 60 54 0.973 3.4281032768789 65.091561491612 89.865937377524
vector 641  Scenario2_SlowSpeed.node[91].veinsmobility  speed  ETV
[...]
1658	1582911 500 74874828 116979645 46 60 15 1.3604848561819 3.9077648943603 29.688357363728 66.762510137401
vector 1664  Scenario2_SlowSpeed.node[237].veinsmobility  acceleration  ETV
1664	1585918 529 74874828 116979645 46 60 15 -0.44529986083824 1.9116872876726 4.2839402460573 8.6293896906728
vector 1665  Scenario2_SlowSpeed.node[237].veinsmobility  co2emission  ETV
1665	1585439 479 74874828 116979645 46 60 15 0.973 5.2183090931367 29.362180699394 75.511249841101
vector 1671  Scenario2_SlowSpeed.node[238].veinsmobility  acceleration  ETV
1671	1708740 528 74874828 116979645 46 60 15 -0.066997385302093 1.8596300453087 4.848413194939 7.837856847632
vector 1672  Scenario2_SlowSpeed.node[238].veinsmobility  co2emission  ETV
1672	1708241 499 74874828 116979645 46 60 15 1.4089435992299 4.2513574275189 30.267530499618 74.393745605222
vector 1677  Scenario2_SlowSpeed.node[239].veinsmobility  speed  ETV
1677	1588848 467 77731003 116979645 47 60 14 3.430563815459 7.9485180831957 102.00198964761 764.57712666101
vector 1684  Scenario2_SlowSpeed.node[240].veinsmobility  speed  ETV
1684	1591071 466 77731003 116979645 47 60 14 2.560101189555 7.9998528039199 96.022446770006 705.54675452347
vector 1691  Scenario2_SlowSpeed.node[241].veinsmobility  speed  ETV
1691	1711673 466 77731003 116979645 47 60 14 3.761397941966 7.9757891321974 104.20784060717 795.36984844339
vector 1696  Scenario2_SlowSpeed.node[242].veinsmobility  posx  ETV
1696	1593986 318 80591473 116979645 48 60 13 516.75 520.05 6750.75 3505611.7125
vector 1697  Scenario2_SlowSpeed.node[242].veinsmobility  posy  ETV
1697	1593553 433 80591473 116979645 48 60 13 27.851070558525 100.84158836474 748.32577316066 51039.247337823
vector 1703  Scenario2_SlowSpeed.node[243].veinsmobility  posx  ETV
1703	1600487 318 80591473 116979645 48 60 13 513.45 516.75 6707.85 3461198.3325
vector 1704  Scenario2_SlowSpeed.node[243].veinsmobility  posy  ETV
1704	1600053 434 80591473 116979645 48 60 13 27.750727616595 102.16354704665 753.44960636472 52044.584948186
vector 1710  Scenario2_SlowSpeed.node[244].veinsmobility  posx  ETV
1710	1714485 433 80591473 116979645 48 60 13 942.53822464774 1021.3508382545 12842.375781842 12695910.315189
vector 1711  Scenario2_SlowSpeed.node[244].veinsmobility  posy  ETV
1711	1714167 318 80591473 116979645 48 60 13 516.75 516.75 6717.75 3471397.3125
vector 1678  Scenario2_SlowSpeed.node[239].veinsmobility  acceleration  ETV
1678	1588389 459 80591473 116979645 48 60 13 -0.11108799947321 2.0320465198636 4.2090158211092 8.273288190005
vector 1679  Scenario2_SlowSpeed.node[239].veinsmobility  co2emission  ETV
1679	1587955 434 80591473 116979645 48 60 13 1.3193672919824 5.1430447875748 26.330561924573 70.051508626686
vector 1685  Scenario2_SlowSpeed.node[240].veinsmobility  acceleration  ETV
1685	1590613 458 80591473 116979645 48 60 13 -0.091808481749613 1.8963071365654 5.393591136802 8.5285545321315
vector 1686  Scenario2_SlowSpeed.node[240].veinsmobility  co2emission  ETV
1686	1590182 431 80591473 116979645 48 60 13 1.362197570004 4.930644952465 27.293940951179 72.837463666333
vector 1692  Scenario2_SlowSpeed.node[241].veinsmobility  acceleration  ETV
1692	1711211 462 80591473 116979645 48 60 13 -0.034778809931595 1.9862680430664 4.198121047978 7.4003510366801
vector 1693  Scenario2_SlowSpeed.node[241].veinsmobility  co2emission  ETV
1693	1710776 435 80591473 116979645 48 60 13 1.4699081643934 5.1391678794012 26.660592854199 70.049539028887
vector 1717  Scenario2_SlowSpeed.node[245].veinsmobility  posx  ETV
1717	1716272 398 83489489 116979645 49 60 12 956.20696977156 1022.374318342 11953.900378901 11914208.399584
vector 1718  Scenario2_SlowSpeed.node[245].veinsmobility  posy  ETV
1718	1715978 294 83489489 116979645 49 60 12 516.75 516.75 6201 3204366.75
vector 1698  Scenario2_SlowSpeed.node[242].veinsmobility  speed  ETV
1698	1593151 402 83489489 116979645 49 60 12 2.8893917223584 7.9337431713725 83.78592263557 611.3928589093
vector 1705  Scenario2_SlowSpeed.node[243].veinsmobility  speed  ETV
1705	1599652 401 83489489 116979645 49 60 12 2.9380366890714 7.9855065374775 85.500164702081 638.92964580634
vector 1712  Scenario2_SlowSpeed.node[244].veinsmobility  speed  ETV
1712	1713766 401 83489489 116979645 49 60 12 4.0260105867729 7.9726011586026 89.342520053773 680.98535828851
vector 1724  Scenario2_SlowSpeed.node[246].veinsmobility  posx  ETV
1724	1602130 270 86406716 116979645 50 60 11 516.75 516.75 5684.25 2937336.1875
vector 1725  Scenario2_SlowSpeed.node[246].veinsmobility  posy  ETV
1725	1601763 367 86406716 116979645 50 60 11 27.974500107976 89.097603781763 578.44633693374 35326.863734621
vector 1731  Scenario2_SlowSpeed.node[247].veinsmobility  posx  ETV
1731	1603701 270 86406716 116979645 50 60 11 513.45 516.75 5671.05 2923737.5475
vector 1732  Scenario2_SlowSpeed.node[247].veinsmobility  posy  ETV
1732	1603333 368 86406716 116979645 50 60 11 27.837675946046 78.068491874612 513.55954162036 27116.626455095
vector 1699  Scenario2_SlowSpeed.node[242].veinsmobility  acceleration  ETV
1699	1592771 380 86406716 116979645 50 60 11 -0.1125915896484 1.9788457760843 5.0443514490141 8.0326892658216
vector 1700  Scenario2_SlowSpeed.node[242].veinsmobility  co2emission  ETV
1700	1592403 368 86406716 116979645 50 60 11 1.318402062961 4.7142303131837 24.078446817321 63.473739354734
vector 1706  Scenario2_SlowSpeed.node[243].veinsmobility  acceleration  ETV
1706	1599263 389 86406716 116979645 50 60 11 -0.099275471796282 1.8592501281761 4.9384428205691 8.5821604097988
vector 1707  Scenario2_SlowSpeed.node[243].veinsmobility  co2emission  ETV
1707	1598895 368 86406716 116979645 50 60 11 1.3467428712481 4.3767780985615 24.112095832185 67.164885193947
vector 1713  Scenario2_SlowSpeed.node[244].veinsmobility  acceleration  ETV
1713	1713370 396 86406716 116979645 50 60 11 -0.072106652455404 2.0655698409374 3.9465905718298 7.6866913988789
vector 1714  Scenario2_SlowSpeed.node[244].veinsmobility  co2emission  ETV
1714	1713002 368 86406716 116979645 50 60 11 1.3990455709483 5.0623566652151 23.438294062997 67.112501861758
vector 1719  Scenario2_SlowSpeed.node[245].veinsmobility  speed  ETV
1719	1715609 369 86406716 116979645 50 60 11 2.5308302897865 7.9675782922562 77.253992650879 574.64267690431
vector 1738  Scenario2_SlowSpeed.node[248].veinsmobility  posx  ETV
1738	1717767 336 89354599 116979645 51 60 10 970.79575954708 1022.1521930516 10023.950834844 10051164.990753
vector 1739  Scenario2_SlowSpeed.node[248].veinsmobility  posy  ETV
1739	1717521 246 89354599 116979645 51 60 10 516.75 516.75 5167.5 2670305.625
vector 1720  Scenario2_SlowSpeed.node[245].veinsmobility  acceleration  ETV
1720	1715253 356 89354599 116979645 51 60 10 -0.086347132627853 2.2386231102981 5.3504008698419 10.145520617751
vector 1721  Scenario2_SlowSpeed.node[245].veinsmobility  co2emission  ETV
1721	1714918 335 89354599 116979645 51 60 10 1.3714073920576 4.2817428420183 23.044136167596 67.620583122075
vector 1726  Scenario2_SlowSpeed.node[246].veinsmobility  speed  ETV
1726	1601427 336 89354599 116979645 51 60 10 3.4642257531454 7.9873472078121 71.978132912825 539.45192157816
vector 1733  Scenario2_SlowSpeed.node[247].veinsmobility  speed  ETV
1733	1602998 335 89354599 116979645 51 60 10 3.0725889607389 7.7985455514096 60.909275124895 404.40590236846
vector 1745  Scenario2_SlowSpeed.node[249].veinsmobility  posx  ETV
1745	1605025 222 92317426 116979645 52 60 9 516.75 520.05 4670.55 2423803.7025
vector 1746  Scenario2_SlowSpeed.node[249].veinsmobility  posy  ETV
1746	1604722 303 92317426 116979645 52 60 9 28.116483913436 71.192938691065 398.3729211923 19675.589803671
vector 1752  Scenario2_SlowSpeed.node[250].veinsmobility  posx  ETV
1752	1606295 222 92317426 116979645 52 60 9 513.45 516.75 4640.85 2393076.0825
vector 1753  Scenario2_SlowSpeed.node[250].veinsmobility  posy  ETV
1753	1605994 301 92317426 116979645 52 60 9 27.96342541243 67.419930129313 386.98659526075 18329.254476384
vector 1727  Scenario2_SlowSpeed.node[246].veinsmobility  acceleration  ETV
1727	1601108 319 92317426 116979645 52 60 9 -0.11731738588773 2.2395889724477 4.4588191766687 8.7597360618066
vector 1728  Scenario2_SlowSpeed.node[246].veinsmobility  co2emission  ETV
1728	1600805 303 92317426 116979645 52 60 9 1.3121670166754 5.6127155362621 20.84704946047 65.32478320079
vector 1734  Scenario2_SlowSpeed.node[247].veinsmobility  acceleration  ETV
1734	1602688 310 92317426 116979645 52 60 9 -0.85106877716827 1.9571183661954 4.7259565906707 8.9248170874017
vector 1735  Scenario2_SlowSpeed.node[247].veinsmobility  co2emission  ETV
1735	1602400 288 92317426 116979645 52 60 9 0.973 4.3924049604737 20.688033870105 57.547951972733
vector 1740  Scenario2_SlowSpeed.node[248].veinsmobility  speed  ETV
1740	1717219 302 92317426 116979645 52 60 9 2.9126975969708 7.952526715023 62.043528905134 454.02876695494
vector 1759  Scenario2_SlowSpeed.node[251].veinsmobility  posx  ETV
1759	1718951 270 95312834 116979645 53 60 8 984.41170049272 1021.9124959879 8063.1296734369 8128181.570176
vector 1760  Scenario2_SlowSpeed.node[251].veinsmobility  posy  ETV
1760	1718753 198 95312834 116979645 53 60 8 516.75 516.75 4134 2136244.5
vector 1741  Scenario2_SlowSpeed.node[248].veinsmobility  acceleration  ETV
1741	1716935 284 95312834 116979645 53 60 8 -0.048595910265576 1.9453869137843 4.9641518412466 8.8283699503492
vector 1742  Scenario2_SlowSpeed.node[248].veinsmobility  co2emission  ETV
1742	1716670 265 95312834 116979645 53 60 8 1.443684424918 4.5643913428143 19.564752920136 60.046039271098
vector 1747  Scenario2_SlowSpeed.node[249].veinsmobility  speed  ETV
1747	1604452 270 95312834 116979645 53 60 8 3.1024768454625 7.9851732712681 53.793216242804 387.58180352894
vector 1754  Scenario2_SlowSpeed.node[250].veinsmobility  speed  ETV
1754	1605725 269 95312834 116979645 53 60 8 3.3922687381686 7.5217416941749 49.537311377051 323.15550894357
vector 1766  Scenario2_SlowSpeed.node[252].veinsmobility  posx  ETV
1766	1607302 174 98320217 116979645 54 60 7 516.75 520.05 3627.15 1879478.2575
vector 1767  Scenario2_SlowSpeed.node[252].veinsmobility  posy  ETV
1767	1607065 237 98320217 116979645 54 60 7 28.475066062909 58.619820181749 276.69020206204 11757.952034308
vector 1773  Scenario2_SlowSpeed.node[253].veinsmobility  posx  ETV
1773	1608259 174 98320217 116979645 54 60 7 513.45 516.75 3604.05 1855615.2975
vector 1774  Scenario2_SlowSpeed.node[253].veinsmobility  posy  ETV
1774	1608022 237 98320217 116979645 54 60 7 27.839715409503 50.268584657832 250.35864635289 9380.90320187
vector 1748  Scenario2_SlowSpeed.node[249].veinsmobility  acceleration  ETV
1748	1604207 245 98320217 116979645 54 60 7 -0.030437800048385 2.039529139495 4.8522586257573 8.0320589990681
vector 1749  Scenario2_SlowSpeed.node[249].veinsmobility  co2emission  ETV
1749	1603971 236 98320217 116979645 54 60 7 1.4818840741756 4.6377367144781 17.913812965179 57.193228252122
vector 1755  Scenario2_SlowSpeed.node[250].veinsmobility  acceleration  ETV
1755	1605483 242 98320217 116979645 54 60 7 0.099852137767468 1.5811310482111 4.1294729560064 4.1490515661622
vector 1756  Scenario2_SlowSpeed.node[250].veinsmobility  co2emission  ETV
1756	1605247 236 98320217 116979645 54 60 7 1.6931670117602 3.692665201035 16.124845307711 39.881823415565
vector 1761  Scenario2_SlowSpeed.node[251].veinsmobility  speed  ETV
1761	1718518 235 98320217 116979645 54 60 7 3.4851781942639 7.9488925908343 48.212323825948 350.24431149357
vector 1780  Scenario2_SlowSpeed.node[254].veinsmobility  posx  ETV
1780	1719817 202 101367124 116979645 55 60 6 999.00009756689 1021.5503407676 6081.4013331274 6164315.9623809
vector 1781  Scenario2_SlowSpeed.node[254].veinsmobility  posy  ETV
1781	1719667 150 101367124 116979645 55 60 6 516.75 516.75 3100.5 1602183.375
vector 1762  Scenario2_SlowSpeed.node[251].veinsmobility  acceleration  ETV
1762	1718306 212 101367124 116979645 55 60 6 -0.021122020371258 2.0232608730393 4.462062617886 8.2762581956995
vector 1763  Scenario2_SlowSpeed.node[251].veinsmobility  co2emission  ETV
1763	1718103 203 101367124 116979645 55 60 6 1.4981084777848 5.1611457167486 16.200522167199 55.680594274112
vector 1768  Scenario2_SlowSpeed.node[252].veinsmobility  speed  ETV
1768	1606862 203 101367124 116979645 55 60 6 3.7323906710826 7.941263631722 40.447681102668 287.35869330906
vector 1775  Scenario2_SlowSpeed.node[253].veinsmobility  speed  ETV
1775	1607818 204 101367124 116979645 55 60 6 3.0003812995852 7.9158111435641 33.292584634665 206.90182186374
vector 1787  Scenario2_SlowSpeed.node[255].veinsmobility  posx  ETV
1787	1608944 125 104425649 116979645 56 60 5 516.75 520.05 2590.35 1341995.6925
vector 1788  Scenario2_SlowSpeed.node[255].veinsmobility  posy  ETV
1788	1608774 170 104425649 116979645 56 60 5 28.105140553317 41.486026791655 163.47728318996 5474.4534806129
vector 1794  Scenario2_SlowSpeed.node[256].veinsmobility  posx  ETV
1794	1609576 125 104425649 116979645 56 60 5 513.45 516.75 2573.85 1324953.8325
vector 1795  Scenario2_SlowSpeed.node[256].veinsmobility  posy  ETV
1795	1609407 169 104425649 116979645 56 60 5 27.963664789666 41.083045418246 162.26359320482 5390.5980075092
vector 1801  Scenario2_SlowSpeed.node[257].veinsmobility  posx  ETV
1801	1720483 151 104425649 116979645 56 60 5 1012.6768161246 1022.4 5096.4985969081 5194928.0300712
vector 1802  Scenario2_SlowSpeed.node[257].veinsmobility  posy  ETV
1802	1720358 125 104425649 116979645 56 60 5 516.75 516.75 2583.75 1335152.8125
vector 1769  Scenario2_SlowSpeed.node[252].veinsmobility  acceleration  ETV
1769	1606686 176 104425649 116979645 56 60 5 -0.024996937448159 1.9362509298953 4.2088729606393 6.753283808931
vector 1770  Scenario2_SlowSpeed.node[252].veinsmobility  co2emission  ETV
1770	1606517 169 104425649 116979645 56 60 5 1.489310690513 4.3055311325111 14.245723149097 47.528001402335
vector 1776  Scenario2_SlowSpeed.node[253].veinsmobility  acceleration  ETV
1776	1607646 172 104425649 116979645 56 60 5 0.025761216506361 2.0501399982953 4.9154298439789 8.0045148915679
vector 1777  Scenario2_SlowSpeed.node[253].veinsmobility  co2emission  ETV
1777	1607476 170 104425649 116979645 56 60 5 1.4795794957093 4.6577287089356 14.568258376966 52.238625905175
vector 1782  Scenario2_SlowSpeed.node[254].veinsmobility  speed  ETV
1782	1719497 170 104425649 116979645 56 60 5 3.8615547239218 7.9526248042053 33.205697489731 233.80850416712
vector 1783  Scenario2_SlowSpeed.node[254].veinsmobility  acceleration  ETV
1783	1719357 140 107538422 116979645 57 60 4 -0.021444639787077 2.0778317531408 4.0696254404963 7.6993274712694
vector 1784  Scenario2_SlowSpeed.node[254].veinsmobility  co2emission  ETV
1784	1719221 136 107538422 116979645 57 60 4 1.4976983545262 5.4185271340268 12.719267239768 50.479985692569
vector 1789  Scenario2_SlowSpeed.node[255].veinsmobility  speed  ETV
1789	1608638 136 107538422 116979645 57 60 4 3.4796463384469 7.9243103593588 24.003878526356 156.07427264783
vector 1796  Scenario2_SlowSpeed.node[256].veinsmobility  speed  ETV
1796	1609271 136 107538422 116979645 57 60 4 3.3699620306069 7.2629031810885 22.753771432729 138.89829504952
vector 1803  Scenario2_SlowSpeed.node[257].veinsmobility  speed  ETV
1803	1720222 136 107538422 116979645 57 60 4 2.1940109600276 7.9843347878265 20.378113655219 122.56644599616
vector 1808  Scenario2_SlowSpeed.node[258].veinsmobility  posx  ETV
1808	1609939 75 110645982 116979645 58 60 3 516.75 516.75 1550.25 801091.6875
vector 1809  Scenario2_SlowSpeed.node[258].veinsmobility  posy  ETV
1809	1609837 102 110645982 116979645 58 60 3 28.457887397627 31.475046819166 88.39082161442 2610.3812825407
vector 1815  Scenario2_SlowSpeed.node[259].veinsmobility  posx  ETV
1815	1614529 75 110645982 116979645 58 60 3 513.45 513.45 1540.35 790892.7075
vector 1816  Scenario2_SlowSpeed.node[259].veinsmobility  posy  ETV
1816	1614427 102 110645982 116979645 58 60 3 28.271074511139 30.985851892646 87.528000914924 2558.6303255417
vector 1822  Scenario2_SlowSpeed.node[260].veinsmobility  posx  ETV
1822	1720845 102 110645982 116979645 58 60 3 1020.5885026063 1022.3242891812 3065.2370809687 3131894.7961519
vector 1823  Scenario2_SlowSpeed.node[260].veinsmobility  posy  ETV
1823	1720770 75 110645982 116979645 58 60 3 516.75 516.75 1550.25 801091.6875
vector 1790  Scenario2_SlowSpeed.node[255].veinsmobility  acceleration  ETV
1790	1608535 103 110645982 116979645 58 60 3 0.67761181169994 1.8934752667672 4.4446640209119 7.5546969124752
vector 1791  Scenario2_SlowSpeed.node[255].veinsmobility  co2emission  ETV
1791	1608433 102 110645982 116979645 58 60 3 2.8323120100166 4.8016043542131 11.433479296763 45.514074174762
vector 1797  Scenario2_SlowSpeed.node[256].veinsmobility  acceleration  ETV
1797	1609168 103 110645982 116979645 58 60 3 0.38583984090933 1.8738808502476 3.8929411504815 6.3277108925141
vector 1798  Scenario2_SlowSpeed.node[256].veinsmobility  co2emission  ETV
1798	1609069 99 110645982 116979645 58 60 3 2.171112810438 4.1786494886113 10.094192973969 36.195603463601
vector 1804  Scenario2_SlowSpeed.node[257].veinsmobility  acceleration  ETV
1804	1720121 101 110645982 116979645 58 60 3 1.8880755992827 1.9927504697232 5.7903238277989 11.182065594024
vector 1805  Scenario2_SlowSpeed.node[257].veinsmobility  co2emission  ETV
1805	1720019 102 110645982 116979645 58 60 3 3.2027258744572 5.1752666637139 12.730751709568 55.987350471646
vector 1810  Scenario2_SlowSpeed.node[258].veinsmobility  speed  ETV
1810	1609769 68 113813342 116979645 59 60 2 4.0072185669503 6.0796519611556 10.086870528106 53.019968612094
vector 1817  Scenario2_SlowSpeed.node[259].veinsmobility  speed  ETV
1817	1614359 68 113813342 116979645 59 60 2 3.5735053343019 3.6023846342524 7.1758899685543 25.747115427382
vector 1824  Scenario2_SlowSpeed.node[260].veinsmobility  speed  ETV
1824	1720702 68 113813342 116979645 59 60 2 2.6719666774688 4.5947360364977 7.2667027139665 28.251005170594
vector 1829  Scenario2_SlowSpeed.node[261].veinsmobility  posx  ETV
1829	1614638 25 116979645 116979645 60 60 1 516.75 516.75 516.75 267030.5625
vector 1830  Scenario2_SlowSpeed.node[261].veinsmobility  posy  ETV
1830	1614604 34 116979645 116979645 60 60 1 28.652939694611 28.652939694611 28.652939694611 820.99095314301
vector 1836  Scenario2_SlowSpeed.node[262].veinsmobility  posx  ETV
1836	1614697 25 116979645 116979645 60 60 1 513.45 513.45 513.45 263630.9025
vector 1837  Scenario2_SlowSpeed.node[262].veinsmobility  posy  ETV
1837	1614663 34 116979645 116979645 60 60 1 28.470390807098 28.470390807098 28.470390807098 810.56315270889
vector 1843  Scenario2_SlowSpeed.node[263].veinsmobility  posx  ETV
1843	1728314 34 116979645 116979645 60 60 1 1022.1498830365 1022.1498830365 1022.1498830365 1044790.3833915
vector 1844  Scenario2_SlowSpeed.node[263].veinsmobility  posy  ETV
1844	1728289 25 116979645 116979645 60 60 1 516.75 516.75 516.75 267030.5625
vector 1811  Scenario2_SlowSpeed.node[258].veinsmobility  acceleration  ETV
1811	1609735 34 116979645 116979645 60 60 1 2.0724333942053 2.0724333942053 2.0724333942053 4.2949801734173
vector 1812  Scenario2_SlowSpeed.node[258].veinsmobility  co2emission  ETV
1812	1609701 34 116979645 116979645 60 60 1 4.4605628998057 4.4605628998057 4.4605628998057 19.896621383123
vector 1818  Scenario2_SlowSpeed.node[259].veinsmobility  acceleration  ETV
1818	1614322 37 116979645 116979645 60 60 1 -0.028879299950528 -0.028879299950528 -0.028879299950528 0.00083401396563257
vector 1819  Scenario2_SlowSpeed.node[259].veinsmobility  co2emission  ETV
1819	1614288 34 116979645 116979645 60 60 1 1.2617301842183 1.2617301842183 1.2617301842183 1.5919630577675
vector 1825  Scenario2_SlowSpeed.node[260].veinsmobility  acceleration  ETV
1825	1720668 34 116979645 116979645 60 60 1 1.9227693590289 1.9227693590289 1.9227693590289 3.6970420080204
vector 1826  Scenario2_SlowSpeed.node[260].veinsmobility  co2emission  ETV
1826	1720634 34 116979645 116979645 60 60 1 3.4697538803579 3.4697538803579 3.4697538803579 12.039191990259
