version 2
run WithoutChSw-WSA-slotted-0-20180208-17:36:50-24834
attr configname WithoutChSw-WSA-slotted
attr datetime 20180208-17:36:50
attr experiment WithoutChSw-WSA-slotted
attr inifile omnetpp.ini
attr iterationvars $0=0.1s
attr iterationvarsf 0.1s-
attr measurement $0=0.1s
attr network Scenario2_SlowSpeed
attr processid 24834
attr repetition 0
attr replication #0
attr resultdir results
attr runnumber 0
attr seedset 0
param **.coreDebug false
param **.debug false
param *.**.nic.mac1609_4.bitrate 6Mbps
param *.**.nic.mac1609_4.txPower 20mW
param *.**.nic.mac1609_4.useServiceChannel false
param *.**.nic.phy80211p.analogueModels "xmldoc(\"config.xml\")"
param *.**.nic.phy80211p.antenna "xmldoc(\"antenna.xml\", \"/root/Antenna[@id='monopole']\")"
param *.**.nic.phy80211p.collectCollisionStatistics true
param *.**.nic.phy80211p.decider "xmldoc(\"config.xml\")"
param *.**.nic.phy80211p.sensitivity -89dBm
param *.**.nic.phy80211p.thermalNoise -110dBm
param *.**.nic.phy80211p.usePropagationDelay true
param *.**.nic.phy80211p.useThermalNoise true
param *.annotations.draw true
param *.connectionManager.drawMaxIntfDist false
param *.connectionManager.maxInterfDist 2600m
param *.connectionManager.sendDirect true
param *.manager.autoShutdown true
param *.manager.host "\"localhost\""
param *.manager.launchConfig "xmldoc(\"mycross.launchd.xml\")"
param *.manager.port 9999
param *.manager.updateInterval 1s
param *.node[*].appl.Slotted1Enabled true
param *.node[*].appl.Slotted_Ns 5
param *.node[*].appl.Slotted_R 500
param *.node[*].appl.Slotted_tau 0.005
param *.node[*].appl.beaconInterval 1s
param *.node[*].appl.dataOnSch false
param *.node[*].appl.headerLength "80 bit"
param *.node[*].appl.sendBeacons true
param *.node[*].appl.sendWSA true
param *.node[*].applType "\"myWaveAppLayer\""
param *.node[*].veinsmobility.x 0
param *.node[*].veinsmobility.y 0
param *.node[*].veinsmobility.z 1.895
param *.node[*].veinsmobilityType.debug true
param *.node[20].appl.Accident_start 30
param *.node[40].veinsmobility.accidentCount 1
param *.node[40].veinsmobility.accidentDuration 40s
param *.node[40].veinsmobility.accidentStart 30s
param *.obstacles.debug false
param *.playgroundSizeX 2500m
param *.playgroundSizeY 2500m
param *.playgroundSizeZ 50m
param *.rsu[*].appl.beaconInterval 0.1s
param *.rsu[*].appl.beaconUserPriority 7
param *.rsu[*].appl.dataOnSch false
param *.rsu[*].appl.dataUserPriority 5
param *.rsu[*].appl.headerLength "80 bit"
param *.rsu[*].appl.sendBeacons false
param *.rsu[*].applType "\"TraCIDemoRSU11p\""
param *.rsu[0].mobility.x 500
param *.rsu[0].mobility.y 500
param *.rsu[0].mobility.z 3

vector 2  Scenario2_SlowSpeed.node[0].veinsmobility  posx  ETV
vector 3  Scenario2_SlowSpeed.node[0].veinsmobility  posy  ETV
vector 9  Scenario2_SlowSpeed.node[1].veinsmobility  posx  ETV
vector 10  Scenario2_SlowSpeed.node[1].veinsmobility  posy  ETV
vector 16  Scenario2_SlowSpeed.node[2].veinsmobility  posx  ETV
vector 17  Scenario2_SlowSpeed.node[2].veinsmobility  posy  ETV
vector 23  Scenario2_SlowSpeed.node[3].veinsmobility  posx  ETV
vector 24  Scenario2_SlowSpeed.node[3].veinsmobility  posy  ETV
vector 30  Scenario2_SlowSpeed.node[4].veinsmobility  posx  ETV
vector 31  Scenario2_SlowSpeed.node[4].veinsmobility  posy  ETV
vector 37  Scenario2_SlowSpeed.node[5].veinsmobility  posx  ETV
vector 38  Scenario2_SlowSpeed.node[5].veinsmobility  posy  ETV
vector 44  Scenario2_SlowSpeed.node[6].veinsmobility  posx  ETV
vector 45  Scenario2_SlowSpeed.node[6].veinsmobility  posy  ETV
vector 51  Scenario2_SlowSpeed.node[7].veinsmobility  posx  ETV
vector 52  Scenario2_SlowSpeed.node[7].veinsmobility  posy  ETV
vector 58  Scenario2_SlowSpeed.node[8].veinsmobility  posx  ETV
vector 59  Scenario2_SlowSpeed.node[8].veinsmobility  posy  ETV
vector 65  Scenario2_SlowSpeed.node[9].veinsmobility  posx  ETV
vector 66  Scenario2_SlowSpeed.node[9].veinsmobility  posy  ETV
vector 72  Scenario2_SlowSpeed.node[10].veinsmobility  posx  ETV
vector 73  Scenario2_SlowSpeed.node[10].veinsmobility  posy  ETV
vector 79  Scenario2_SlowSpeed.node[11].veinsmobility  posx  ETV
vector 80  Scenario2_SlowSpeed.node[11].veinsmobility  posy  ETV
vector 86  Scenario2_SlowSpeed.node[12].veinsmobility  posx  ETV
vector 87  Scenario2_SlowSpeed.node[12].veinsmobility  posy  ETV
vector 93  Scenario2_SlowSpeed.node[13].veinsmobility  posx  ETV
vector 94  Scenario2_SlowSpeed.node[13].veinsmobility  posy  ETV
vector 100  Scenario2_SlowSpeed.node[14].veinsmobility  posx  ETV
vector 101  Scenario2_SlowSpeed.node[14].veinsmobility  posy  ETV
vector 107  Scenario2_SlowSpeed.node[15].veinsmobility  posx  ETV
vector 108  Scenario2_SlowSpeed.node[15].veinsmobility  posy  ETV
vector 114  Scenario2_SlowSpeed.node[16].veinsmobility  posx  ETV
vector 115  Scenario2_SlowSpeed.node[16].veinsmobility  posy  ETV
vector 121  Scenario2_SlowSpeed.node[17].veinsmobility  posx  ETV
vector 122  Scenario2_SlowSpeed.node[17].veinsmobility  posy  ETV
vector 128  Scenario2_SlowSpeed.node[18].veinsmobility  posx  ETV
vector 129  Scenario2_SlowSpeed.node[18].veinsmobility  posy  ETV
vector 135  Scenario2_SlowSpeed.node[19].veinsmobility  posx  ETV
vector 136  Scenario2_SlowSpeed.node[19].veinsmobility  posy  ETV
vector 142  Scenario2_SlowSpeed.node[20].veinsmobility  posx  ETV
vector 143  Scenario2_SlowSpeed.node[20].veinsmobility  posy  ETV
vector 149  Scenario2_SlowSpeed.node[21].veinsmobility  posx  ETV
vector 150  Scenario2_SlowSpeed.node[21].veinsmobility  posy  ETV
vector 156  Scenario2_SlowSpeed.node[22].veinsmobility  posx  ETV
vector 157  Scenario2_SlowSpeed.node[22].veinsmobility  posy  ETV
vector 163  Scenario2_SlowSpeed.node[23].veinsmobility  posx  ETV
vector 164  Scenario2_SlowSpeed.node[23].veinsmobility  posy  ETV
vector 170  Scenario2_SlowSpeed.node[24].veinsmobility  posx  ETV
vector 171  Scenario2_SlowSpeed.node[24].veinsmobility  posy  ETV
vector 177  Scenario2_SlowSpeed.node[25].veinsmobility  posx  ETV
vector 178  Scenario2_SlowSpeed.node[25].veinsmobility  posy  ETV
vector 184  Scenario2_SlowSpeed.node[26].veinsmobility  posx  ETV
vector 185  Scenario2_SlowSpeed.node[26].veinsmobility  posy  ETV
vector 191  Scenario2_SlowSpeed.node[27].veinsmobility  posx  ETV
vector 192  Scenario2_SlowSpeed.node[27].veinsmobility  posy  ETV
vector 198  Scenario2_SlowSpeed.node[28].veinsmobility  posx  ETV
vector 199  Scenario2_SlowSpeed.node[28].veinsmobility  posy  ETV
vector 205  Scenario2_SlowSpeed.node[29].veinsmobility  posx  ETV
vector 206  Scenario2_SlowSpeed.node[29].veinsmobility  posy  ETV
vector 212  Scenario2_SlowSpeed.node[30].veinsmobility  posx  ETV
vector 213  Scenario2_SlowSpeed.node[30].veinsmobility  posy  ETV
vector 219  Scenario2_SlowSpeed.node[31].veinsmobility  posx  ETV
vector 220  Scenario2_SlowSpeed.node[31].veinsmobility  posy  ETV
vector 226  Scenario2_SlowSpeed.node[32].veinsmobility  posx  ETV
vector 227  Scenario2_SlowSpeed.node[32].veinsmobility  posy  ETV
vector 233  Scenario2_SlowSpeed.node[33].veinsmobility  posx  ETV
vector 234  Scenario2_SlowSpeed.node[33].veinsmobility  posy  ETV
vector 240  Scenario2_SlowSpeed.node[34].veinsmobility  posx  ETV
vector 241  Scenario2_SlowSpeed.node[34].veinsmobility  posy  ETV
vector 247  Scenario2_SlowSpeed.node[35].veinsmobility  posx  ETV
vector 248  Scenario2_SlowSpeed.node[35].veinsmobility  posy  ETV
vector 254  Scenario2_SlowSpeed.node[36].veinsmobility  posx  ETV
vector 255  Scenario2_SlowSpeed.node[36].veinsmobility  posy  ETV
vector 261  Scenario2_SlowSpeed.node[37].veinsmobility  posx  ETV
vector 262  Scenario2_SlowSpeed.node[37].veinsmobility  posy  ETV
vector 268  Scenario2_SlowSpeed.node[38].veinsmobility  posx  ETV
vector 269  Scenario2_SlowSpeed.node[38].veinsmobility  posy  ETV
vector 275  Scenario2_SlowSpeed.node[39].veinsmobility  posx  ETV
vector 276  Scenario2_SlowSpeed.node[39].veinsmobility  posy  ETV
vector 282  Scenario2_SlowSpeed.node[40].veinsmobility  posx  ETV
vector 283  Scenario2_SlowSpeed.node[40].veinsmobility  posy  ETV
vector 289  Scenario2_SlowSpeed.node[41].veinsmobility  posx  ETV
vector 290  Scenario2_SlowSpeed.node[41].veinsmobility  posy  ETV
vector 296  Scenario2_SlowSpeed.node[42].veinsmobility  posx  ETV
vector 297  Scenario2_SlowSpeed.node[42].veinsmobility  posy  ETV
vector 303  Scenario2_SlowSpeed.node[43].veinsmobility  posx  ETV
vector 304  Scenario2_SlowSpeed.node[43].veinsmobility  posy  ETV
vector 310  Scenario2_SlowSpeed.node[44].veinsmobility  posx  ETV
vector 311  Scenario2_SlowSpeed.node[44].veinsmobility  posy  ETV
vector 317  Scenario2_SlowSpeed.node[45].veinsmobility  posx  ETV
vector 318  Scenario2_SlowSpeed.node[45].veinsmobility  posy  ETV
vector 324  Scenario2_SlowSpeed.node[46].veinsmobility  posx  ETV
vector 325  Scenario2_SlowSpeed.node[46].veinsmobility  posy  ETV
vector 331  Scenario2_SlowSpeed.node[47].veinsmobility  posx  ETV
vector 332  Scenario2_SlowSpeed.node[47].veinsmobility  posy  ETV
vector 338  Scenario2_SlowSpeed.node[48].veinsmobility  posx  ETV
vector 339  Scenario2_SlowSpeed.node[48].veinsmobility  posy  ETV
vector 345  Scenario2_SlowSpeed.node[49].veinsmobility  posx  ETV
vector 346  Scenario2_SlowSpeed.node[49].veinsmobility  posy  ETV
vector 352  Scenario2_SlowSpeed.node[50].veinsmobility  posx  ETV
vector 353  Scenario2_SlowSpeed.node[50].veinsmobility  posy  ETV
vector 359  Scenario2_SlowSpeed.node[51].veinsmobility  posx  ETV
vector 360  Scenario2_SlowSpeed.node[51].veinsmobility  posy  ETV
vector 366  Scenario2_SlowSpeed.node[52].veinsmobility  posx  ETV
vector 367  Scenario2_SlowSpeed.node[52].veinsmobility  posy  ETV
vector 373  Scenario2_SlowSpeed.node[53].veinsmobility  posx  ETV
vector 374  Scenario2_SlowSpeed.node[53].veinsmobility  posy  ETV
vector 380  Scenario2_SlowSpeed.node[54].veinsmobility  posx  ETV
vector 381  Scenario2_SlowSpeed.node[54].veinsmobility  posy  ETV
vector 387  Scenario2_SlowSpeed.node[55].veinsmobility  posx  ETV
vector 388  Scenario2_SlowSpeed.node[55].veinsmobility  posy  ETV
vector 394  Scenario2_SlowSpeed.node[56].veinsmobility  posx  ETV
vector 395  Scenario2_SlowSpeed.node[56].veinsmobility  posy  ETV
vector 401  Scenario2_SlowSpeed.node[57].veinsmobility  posx  ETV
vector 402  Scenario2_SlowSpeed.node[57].veinsmobility  posy  ETV
vector 408  Scenario2_SlowSpeed.node[58].veinsmobility  posx  ETV
vector 409  Scenario2_SlowSpeed.node[58].veinsmobility  posy  ETV
vector 415  Scenario2_SlowSpeed.node[59].veinsmobility  posx  ETV
vector 416  Scenario2_SlowSpeed.node[59].veinsmobility  posy  ETV
vector 422  Scenario2_SlowSpeed.node[60].veinsmobility  posx  ETV
vector 423  Scenario2_SlowSpeed.node[60].veinsmobility  posy  ETV
vector 429  Scenario2_SlowSpeed.node[61].veinsmobility  posx  ETV
vector 430  Scenario2_SlowSpeed.node[61].veinsmobility  posy  ETV
vector 436  Scenario2_SlowSpeed.node[62].veinsmobility  posx  ETV
vector 437  Scenario2_SlowSpeed.node[62].veinsmobility  posy  ETV
vector 443  Scenario2_SlowSpeed.node[63].veinsmobility  posx  ETV
vector 444  Scenario2_SlowSpeed.node[63].veinsmobility  posy  ETV
vector 450  Scenario2_SlowSpeed.node[64].veinsmobility  posx  ETV
vector 451  Scenario2_SlowSpeed.node[64].veinsmobility  posy  ETV
vector 457  Scenario2_SlowSpeed.node[65].veinsmobility  posx  ETV
vector 458  Scenario2_SlowSpeed.node[65].veinsmobility  posy  ETV
vector 464  Scenario2_SlowSpeed.node[66].veinsmobility  posx  ETV
vector 465  Scenario2_SlowSpeed.node[66].veinsmobility  posy  ETV
vector 471  Scenario2_SlowSpeed.node[67].veinsmobility  posx  ETV
vector 472  Scenario2_SlowSpeed.node[67].veinsmobility  posy  ETV
vector 478  Scenario2_SlowSpeed.node[68].veinsmobility  posx  ETV
vector 479  Scenario2_SlowSpeed.node[68].veinsmobility  posy  ETV
vector 485  Scenario2_SlowSpeed.node[69].veinsmobility  posx  ETV
vector 486  Scenario2_SlowSpeed.node[69].veinsmobility  posy  ETV
vector 492  Scenario2_SlowSpeed.node[70].veinsmobility  posx  ETV
vector 493  Scenario2_SlowSpeed.node[70].veinsmobility  posy  ETV
vector 499  Scenario2_SlowSpeed.node[71].veinsmobility  posx  ETV
vector 500  Scenario2_SlowSpeed.node[71].veinsmobility  posy  ETV
vector 4  Scenario2_SlowSpeed.node[0].veinsmobility  speed  ETV
vector 11  Scenario2_SlowSpeed.node[1].veinsmobility  speed  ETV
vector 18  Scenario2_SlowSpeed.node[2].veinsmobility  speed  ETV
vector 25  Scenario2_SlowSpeed.node[3].veinsmobility  speed  ETV
vector 32  Scenario2_SlowSpeed.node[4].veinsmobility  speed  ETV
vector 39  Scenario2_SlowSpeed.node[5].veinsmobility  speed  ETV
vector 46  Scenario2_SlowSpeed.node[6].veinsmobility  speed  ETV
vector 53  Scenario2_SlowSpeed.node[7].veinsmobility  speed  ETV
vector 60  Scenario2_SlowSpeed.node[8].veinsmobility  speed  ETV
vector 67  Scenario2_SlowSpeed.node[9].veinsmobility  speed  ETV
vector 74  Scenario2_SlowSpeed.node[10].veinsmobility  speed  ETV
vector 81  Scenario2_SlowSpeed.node[11].veinsmobility  speed  ETV
vector 88  Scenario2_SlowSpeed.node[12].veinsmobility  speed  ETV
vector 95  Scenario2_SlowSpeed.node[13].veinsmobility  speed  ETV
vector 102  Scenario2_SlowSpeed.node[14].veinsmobility  speed  ETV
vector 109  Scenario2_SlowSpeed.node[15].veinsmobility  speed  ETV
vector 116  Scenario2_SlowSpeed.node[16].veinsmobility  speed  ETV
vector 123  Scenario2_SlowSpeed.node[17].veinsmobility  speed  ETV
vector 130  Scenario2_SlowSpeed.node[18].veinsmobility  speed  ETV
vector 137  Scenario2_SlowSpeed.node[19].veinsmobility  speed  ETV
vector 144  Scenario2_SlowSpeed.node[20].veinsmobility  speed  ETV
vector 151  Scenario2_SlowSpeed.node[21].veinsmobility  speed  ETV
vector 158  Scenario2_SlowSpeed.node[22].veinsmobility  speed  ETV
vector 165  Scenario2_SlowSpeed.node[23].veinsmobility  speed  ETV
vector 172  Scenario2_SlowSpeed.node[24].veinsmobility  speed  ETV
vector 179  Scenario2_SlowSpeed.node[25].veinsmobility  speed  ETV
vector 186  Scenario2_SlowSpeed.node[26].veinsmobility  speed  ETV
vector 193  Scenario2_SlowSpeed.node[27].veinsmobility  speed  ETV
vector 200  Scenario2_SlowSpeed.node[28].veinsmobility  speed  ETV
vector 207  Scenario2_SlowSpeed.node[29].veinsmobility  speed  ETV
vector 214  Scenario2_SlowSpeed.node[30].veinsmobility  speed  ETV
vector 221  Scenario2_SlowSpeed.node[31].veinsmobility  speed  ETV
vector 228  Scenario2_SlowSpeed.node[32].veinsmobility  speed  ETV
vector 235  Scenario2_SlowSpeed.node[33].veinsmobility  speed  ETV
vector 242  Scenario2_SlowSpeed.node[34].veinsmobility  speed  ETV
vector 249  Scenario2_SlowSpeed.node[35].veinsmobility  speed  ETV
vector 256  Scenario2_SlowSpeed.node[36].veinsmobility  speed  ETV
vector 263  Scenario2_SlowSpeed.node[37].veinsmobility  speed  ETV
vector 270  Scenario2_SlowSpeed.node[38].veinsmobility  speed  ETV
vector 277  Scenario2_SlowSpeed.node[39].veinsmobility  speed  ETV
vector 284  Scenario2_SlowSpeed.node[40].veinsmobility  speed  ETV
vector 291  Scenario2_SlowSpeed.node[41].veinsmobility  speed  ETV
vector 298  Scenario2_SlowSpeed.node[42].veinsmobility  speed  ETV
vector 305  Scenario2_SlowSpeed.node[43].veinsmobility  speed  ETV
vector 312  Scenario2_SlowSpeed.node[44].veinsmobility  speed  ETV
vector 319  Scenario2_SlowSpeed.node[45].veinsmobility  speed  ETV
vector 326  Scenario2_SlowSpeed.node[46].veinsmobility  speed  ETV
vector 506  Scenario2_SlowSpeed.node[72].veinsmobility  posx  ETV
vector 507  Scenario2_SlowSpeed.node[72].veinsmobility  posy  ETV
vector 513  Scenario2_SlowSpeed.node[73].veinsmobility  posx  ETV
vector 514  Scenario2_SlowSpeed.node[73].veinsmobility  posy  ETV
vector 520  Scenario2_SlowSpeed.node[74].veinsmobility  posx  ETV
vector 521  Scenario2_SlowSpeed.node[74].veinsmobility  posy  ETV
vector 527  Scenario2_SlowSpeed.node[75].veinsmobility  posx  ETV
vector 528  Scenario2_SlowSpeed.node[75].veinsmobility  posy  ETV
vector 534  Scenario2_SlowSpeed.node[76].veinsmobility  posx  ETV
vector 535  Scenario2_SlowSpeed.node[76].veinsmobility  posy  ETV
vector 541  Scenario2_SlowSpeed.node[77].veinsmobility  posx  ETV
vector 542  Scenario2_SlowSpeed.node[77].veinsmobility  posy  ETV
vector 548  Scenario2_SlowSpeed.node[78].veinsmobility  posx  ETV
vector 549  Scenario2_SlowSpeed.node[78].veinsmobility  posy  ETV
vector 555  Scenario2_SlowSpeed.node[79].veinsmobility  posx  ETV
vector 556  Scenario2_SlowSpeed.node[79].veinsmobility  posy  ETV
vector 5  Scenario2_SlowSpeed.node[0].veinsmobility  acceleration  ETV
vector 6  Scenario2_SlowSpeed.node[0].veinsmobility  co2emission  ETV
vector 12  Scenario2_SlowSpeed.node[1].veinsmobility  acceleration  ETV
vector 13  Scenario2_SlowSpeed.node[1].veinsmobility  co2emission  ETV
vector 19  Scenario2_SlowSpeed.node[2].veinsmobility  acceleration  ETV
vector 20  Scenario2_SlowSpeed.node[2].veinsmobility  co2emission  ETV
vector 26  Scenario2_SlowSpeed.node[3].veinsmobility  acceleration  ETV
vector 27  Scenario2_SlowSpeed.node[3].veinsmobility  co2emission  ETV
vector 33  Scenario2_SlowSpeed.node[4].veinsmobility  acceleration  ETV
vector 34  Scenario2_SlowSpeed.node[4].veinsmobility  co2emission  ETV
vector 40  Scenario2_SlowSpeed.node[5].veinsmobility  acceleration  ETV
vector 41  Scenario2_SlowSpeed.node[5].veinsmobility  co2emission  ETV
vector 47  Scenario2_SlowSpeed.node[6].veinsmobility  acceleration  ETV
vector 48  Scenario2_SlowSpeed.node[6].veinsmobility  co2emission  ETV
vector 54  Scenario2_SlowSpeed.node[7].veinsmobility  acceleration  ETV
vector 55  Scenario2_SlowSpeed.node[7].veinsmobility  co2emission  ETV
vector 61  Scenario2_SlowSpeed.node[8].veinsmobility  acceleration  ETV
vector 62  Scenario2_SlowSpeed.node[8].veinsmobility  co2emission  ETV
vector 68  Scenario2_SlowSpeed.node[9].veinsmobility  acceleration  ETV
vector 69  Scenario2_SlowSpeed.node[9].veinsmobility  co2emission  ETV
vector 75  Scenario2_SlowSpeed.node[10].veinsmobility  acceleration  ETV
vector 76  Scenario2_SlowSpeed.node[10].veinsmobility  co2emission  ETV
vector 82  Scenario2_SlowSpeed.node[11].veinsmobility  acceleration  ETV
vector 83  Scenario2_SlowSpeed.node[11].veinsmobility  co2emission  ETV
vector 89  Scenario2_SlowSpeed.node[12].veinsmobility  acceleration  ETV
vector 90  Scenario2_SlowSpeed.node[12].veinsmobility  co2emission  ETV
vector 96  Scenario2_SlowSpeed.node[13].veinsmobility  acceleration  ETV
vector 97  Scenario2_SlowSpeed.node[13].veinsmobility  co2emission  ETV
vector 103  Scenario2_SlowSpeed.node[14].veinsmobility  acceleration  ETV
vector 104  Scenario2_SlowSpeed.node[14].veinsmobility  co2emission  ETV
vector 110  Scenario2_SlowSpeed.node[15].veinsmobility  acceleration  ETV
vector 111  Scenario2_SlowSpeed.node[15].veinsmobility  co2emission  ETV
vector 117  Scenario2_SlowSpeed.node[16].veinsmobility  acceleration  ETV
vector 118  Scenario2_SlowSpeed.node[16].veinsmobility  co2emission  ETV
vector 124  Scenario2_SlowSpeed.node[17].veinsmobility  acceleration  ETV
vector 125  Scenario2_SlowSpeed.node[17].veinsmobility  co2emission  ETV
vector 131  Scenario2_SlowSpeed.node[18].veinsmobility  acceleration  ETV
vector 132  Scenario2_SlowSpeed.node[18].veinsmobility  co2emission  ETV
vector 138  Scenario2_SlowSpeed.node[19].veinsmobility  acceleration  ETV
vector 139  Scenario2_SlowSpeed.node[19].veinsmobility  co2emission  ETV
vector 145  Scenario2_SlowSpeed.node[20].veinsmobility  acceleration  ETV
vector 146  Scenario2_SlowSpeed.node[20].veinsmobility  co2emission  ETV
vector 152  Scenario2_SlowSpeed.node[21].veinsmobility  acceleration  ETV
vector 153  Scenario2_SlowSpeed.node[21].veinsmobility  co2emission  ETV
vector 159  Scenario2_SlowSpeed.node[22].veinsmobility  acceleration  ETV
vector 160  Scenario2_SlowSpeed.node[22].veinsmobility  co2emission  ETV
vector 166  Scenario2_SlowSpeed.node[23].veinsmobility  acceleration  ETV
vector 167  Scenario2_SlowSpeed.node[23].veinsmobility  co2emission  ETV
vector 173  Scenario2_SlowSpeed.node[24].veinsmobility  acceleration  ETV
vector 174  Scenario2_SlowSpeed.node[24].veinsmobility  co2emission  ETV
vector 180  Scenario2_SlowSpeed.node[25].veinsmobility  acceleration  ETV
vector 181  Scenario2_SlowSpeed.node[25].veinsmobility  co2emission  ETV
vector 187  Scenario2_SlowSpeed.node[26].veinsmobility  acceleration  ETV
vector 188  Scenario2_SlowSpeed.node[26].veinsmobility  co2emission  ETV
vector 194  Scenario2_SlowSpeed.node[27].veinsmobility  acceleration  ETV
vector 195  Scenario2_SlowSpeed.node[27].veinsmobility  co2emission  ETV
vector 201  Scenario2_SlowSpeed.node[28].veinsmobility  acceleration  ETV
vector 202  Scenario2_SlowSpeed.node[28].veinsmobility  co2emission  ETV
vector 208  Scenario2_SlowSpeed.node[29].veinsmobility  acceleration  ETV
vector 209  Scenario2_SlowSpeed.node[29].veinsmobility  co2emission  ETV
vector 215  Scenario2_SlowSpeed.node[30].veinsmobility  acceleration  ETV
vector 216  Scenario2_SlowSpeed.node[30].veinsmobility  co2emission  ETV
vector 222  Scenario2_SlowSpeed.node[31].veinsmobility  acceleration  ETV
vector 223  Scenario2_SlowSpeed.node[31].veinsmobility  co2emission  ETV
vector 229  Scenario2_SlowSpeed.node[32].veinsmobility  acceleration  ETV
vector 230  Scenario2_SlowSpeed.node[32].veinsmobility  co2emission  ETV
vector 236  Scenario2_SlowSpeed.node[33].veinsmobility  acceleration  ETV
vector 237  Scenario2_SlowSpeed.node[33].veinsmobility  co2emission  ETV
vector 243  Scenario2_SlowSpeed.node[34].veinsmobility  acceleration  ETV
vector 244  Scenario2_SlowSpeed.node[34].veinsmobility  co2emission  ETV
vector 250  Scenario2_SlowSpeed.node[35].veinsmobility  acceleration  ETV
vector 251  Scenario2_SlowSpeed.node[35].veinsmobility  co2emission  ETV
vector 257  Scenario2_SlowSpeed.node[36].veinsmobility  acceleration  ETV
vector 258  Scenario2_SlowSpeed.node[36].veinsmobility  co2emission  ETV
vector 264  Scenario2_SlowSpeed.node[37].veinsmobility  acceleration  ETV
vector 265  Scenario2_SlowSpeed.node[37].veinsmobility  co2emission  ETV
vector 271  Scenario2_SlowSpeed.node[38].veinsmobility  acceleration  ETV
vector 272  Scenario2_SlowSpeed.node[38].veinsmobility  co2emission  ETV
vector 278  Scenario2_SlowSpeed.node[39].veinsmobility  acceleration  ETV
vector 279  Scenario2_SlowSpeed.node[39].veinsmobility  co2emission  ETV
vector 285  Scenario2_SlowSpeed.node[40].veinsmobility  acceleration  ETV
vector 286  Scenario2_SlowSpeed.node[40].veinsmobility  co2emission  ETV
vector 292  Scenario2_SlowSpeed.node[41].veinsmobility  acceleration  ETV
vector 293  Scenario2_SlowSpeed.node[41].veinsmobility  co2emission  ETV
vector 299  Scenario2_SlowSpeed.node[42].veinsmobility  acceleration  ETV
vector 300  Scenario2_SlowSpeed.node[42].veinsmobility  co2emission  ETV
vector 306  Scenario2_SlowSpeed.node[43].veinsmobility  acceleration  ETV
vector 307  Scenario2_SlowSpeed.node[43].veinsmobility  co2emission  ETV
vector 313  Scenario2_SlowSpeed.node[44].veinsmobility  acceleration  ETV
vector 314  Scenario2_SlowSpeed.node[44].veinsmobility  co2emission  ETV
vector 320  Scenario2_SlowSpeed.node[45].veinsmobility  acceleration  ETV
vector 321  Scenario2_SlowSpeed.node[45].veinsmobility  co2emission  ETV
vector 327  Scenario2_SlowSpeed.node[46].veinsmobility  acceleration  ETV
vector 328  Scenario2_SlowSpeed.node[46].veinsmobility  co2emission  ETV
vector 333  Scenario2_SlowSpeed.node[47].veinsmobility  speed  ETV
vector 340  Scenario2_SlowSpeed.node[48].veinsmobility  speed  ETV
vector 347  Scenario2_SlowSpeed.node[49].veinsmobility  speed  ETV
vector 354  Scenario2_SlowSpeed.node[50].veinsmobility  speed  ETV
vector 361  Scenario2_SlowSpeed.node[51].veinsmobility  speed  ETV
vector 368  Scenario2_SlowSpeed.node[52].veinsmobility  speed  ETV
vector 375  Scenario2_SlowSpeed.node[53].veinsmobility  speed  ETV
vector 382  Scenario2_SlowSpeed.node[54].veinsmobility  speed  ETV
vector 389  Scenario2_SlowSpeed.node[55].veinsmobility  speed  ETV
vector 396  Scenario2_SlowSpeed.node[56].veinsmobility  speed  ETV
vector 403  Scenario2_SlowSpeed.node[57].veinsmobility  speed  ETV
vector 410  Scenario2_SlowSpeed.node[58].veinsmobility  speed  ETV
vector 417  Scenario2_SlowSpeed.node[59].veinsmobility  speed  ETV
vector 424  Scenario2_SlowSpeed.node[60].veinsmobility  speed  ETV
vector 431  Scenario2_SlowSpeed.node[61].veinsmobility  speed  ETV
vector 438  Scenario2_SlowSpeed.node[62].veinsmobility  speed  ETV
vector 445  Scenario2_SlowSpeed.node[63].veinsmobility  speed  ETV
vector 452  Scenario2_SlowSpeed.node[64].veinsmobility  speed  ETV
vector 459  Scenario2_SlowSpeed.node[65].veinsmobility  speed  ETV
vector 466  Scenario2_SlowSpeed.node[66].veinsmobility  speed  ETV
vector 473  Scenario2_SlowSpeed.node[67].veinsmobility  speed  ETV
vector 480  Scenario2_SlowSpeed.node[68].veinsmobility  speed  ETV
vector 487  Scenario2_SlowSpeed.node[69].veinsmobility  speed  ETV
vector 494  Scenario2_SlowSpeed.node[70].veinsmobility  speed  ETV
vector 501  Scenario2_SlowSpeed.node[71].veinsmobility  speed  ETV
vector 562  Scenario2_SlowSpeed.node[80].veinsmobility  posx  ETV
vector 563  Scenario2_SlowSpeed.node[80].veinsmobility  posy  ETV
vector 569  Scenario2_SlowSpeed.node[81].veinsmobility  posx  ETV
vector 570  Scenario2_SlowSpeed.node[81].veinsmobility  posy  ETV
vector 576  Scenario2_SlowSpeed.node[82].veinsmobility  posx  ETV
vector 577  Scenario2_SlowSpeed.node[82].veinsmobility  posy  ETV
vector 583  Scenario2_SlowSpeed.node[83].veinsmobility  posx  ETV
vector 584  Scenario2_SlowSpeed.node[83].veinsmobility  posy  ETV
vector 590  Scenario2_SlowSpeed.node[84].veinsmobility  posx  ETV
vector 591  Scenario2_SlowSpeed.node[84].veinsmobility  posy  ETV
vector 597  Scenario2_SlowSpeed.node[85].veinsmobility  posx  ETV
vector 598  Scenario2_SlowSpeed.node[85].veinsmobility  posy  ETV
vector 334  Scenario2_SlowSpeed.node[47].veinsmobility  acceleration  ETV
vector 335  Scenario2_SlowSpeed.node[47].veinsmobility  co2emission  ETV
vector 341  Scenario2_SlowSpeed.node[48].veinsmobility  acceleration  ETV
vector 342  Scenario2_SlowSpeed.node[48].veinsmobility  co2emission  ETV
vector 348  Scenario2_SlowSpeed.node[49].veinsmobility  acceleration  ETV
vector 349  Scenario2_SlowSpeed.node[49].veinsmobility  co2emission  ETV
vector 355  Scenario2_SlowSpeed.node[50].veinsmobility  acceleration  ETV
vector 356  Scenario2_SlowSpeed.node[50].veinsmobility  co2emission  ETV
vector 362  Scenario2_SlowSpeed.node[51].veinsmobility  acceleration  ETV
vector 363  Scenario2_SlowSpeed.node[51].veinsmobility  co2emission  ETV
vector 369  Scenario2_SlowSpeed.node[52].veinsmobility  acceleration  ETV
vector 370  Scenario2_SlowSpeed.node[52].veinsmobility  co2emission  ETV
vector 376  Scenario2_SlowSpeed.node[53].veinsmobility  acceleration  ETV
vector 377  Scenario2_SlowSpeed.node[53].veinsmobility  co2emission  ETV
vector 383  Scenario2_SlowSpeed.node[54].veinsmobility  acceleration  ETV
vector 384  Scenario2_SlowSpeed.node[54].veinsmobility  co2emission  ETV
vector 390  Scenario2_SlowSpeed.node[55].veinsmobility  acceleration  ETV
vector 391  Scenario2_SlowSpeed.node[55].veinsmobility  co2emission  ETV
vector 397  Scenario2_SlowSpeed.node[56].veinsmobility  acceleration  ETV
vector 398  Scenario2_SlowSpeed.node[56].veinsmobility  co2emission  ETV
vector 404  Scenario2_SlowSpeed.node[57].veinsmobility  acceleration  ETV
vector 405  Scenario2_SlowSpeed.node[57].veinsmobility  co2emission  ETV
vector 411  Scenario2_SlowSpeed.node[58].veinsmobility  acceleration  ETV
vector 412  Scenario2_SlowSpeed.node[58].veinsmobility  co2emission  ETV
vector 418  Scenario2_SlowSpeed.node[59].veinsmobility  acceleration  ETV
vector 419  Scenario2_SlowSpeed.node[59].veinsmobility  co2emission  ETV
vector 425  Scenario2_SlowSpeed.node[60].veinsmobility  acceleration  ETV
vector 426  Scenario2_SlowSpeed.node[60].veinsmobility  co2emission  ETV
vector 432  Scenario2_SlowSpeed.node[61].veinsmobility  acceleration  ETV
vector 433  Scenario2_SlowSpeed.node[61].veinsmobility  co2emission  ETV
vector 439  Scenario2_SlowSpeed.node[62].veinsmobility  acceleration  ETV
vector 440  Scenario2_SlowSpeed.node[62].veinsmobility  co2emission  ETV
vector 446  Scenario2_SlowSpeed.node[63].veinsmobility  acceleration  ETV
vector 447  Scenario2_SlowSpeed.node[63].veinsmobility  co2emission  ETV
vector 453  Scenario2_SlowSpeed.node[64].veinsmobility  acceleration  ETV
vector 454  Scenario2_SlowSpeed.node[64].veinsmobility  co2emission  ETV
vector 460  Scenario2_SlowSpeed.node[65].veinsmobility  acceleration  ETV
vector 461  Scenario2_SlowSpeed.node[65].veinsmobility  co2emission  ETV
vector 467  Scenario2_SlowSpeed.node[66].veinsmobility  acceleration  ETV
vector 468  Scenario2_SlowSpeed.node[66].veinsmobility  co2emission  ETV
vector 474  Scenario2_SlowSpeed.node[67].veinsmobility  acceleration  ETV
vector 475  Scenario2_SlowSpeed.node[67].veinsmobility  co2emission  ETV
vector 481  Scenario2_SlowSpeed.node[68].veinsmobility  acceleration  ETV
vector 482  Scenario2_SlowSpeed.node[68].veinsmobility  co2emission  ETV
vector 488  Scenario2_SlowSpeed.node[69].veinsmobility  acceleration  ETV
vector 489  Scenario2_SlowSpeed.node[69].veinsmobility  co2emission  ETV
vector 495  Scenario2_SlowSpeed.node[70].veinsmobility  acceleration  ETV
vector 496  Scenario2_SlowSpeed.node[70].veinsmobility  co2emission  ETV
vector 502  Scenario2_SlowSpeed.node[71].veinsmobility  acceleration  ETV
vector 503  Scenario2_SlowSpeed.node[71].veinsmobility  co2emission  ETV
vector 508  Scenario2_SlowSpeed.node[72].veinsmobility  speed  ETV
vector 515  Scenario2_SlowSpeed.node[73].veinsmobility  speed  ETV
vector 522  Scenario2_SlowSpeed.node[74].veinsmobility  speed  ETV
vector 529  Scenario2_SlowSpeed.node[75].veinsmobility  speed  ETV
vector 536  Scenario2_SlowSpeed.node[76].veinsmobility  speed  ETV
vector 543  Scenario2_SlowSpeed.node[77].veinsmobility  speed  ETV
vector 550  Scenario2_SlowSpeed.node[78].veinsmobility  speed  ETV
vector 557  Scenario2_SlowSpeed.node[79].veinsmobility  speed  ETV
vector 604  Scenario2_SlowSpeed.node[86].veinsmobility  posx  ETV
vector 605  Scenario2_SlowSpeed.node[86].veinsmobility  posy  ETV
vector 611  Scenario2_SlowSpeed.node[87].veinsmobility  posx  ETV
vector 612  Scenario2_SlowSpeed.node[87].veinsmobility  posy  ETV
vector 618  Scenario2_SlowSpeed.node[88].veinsmobility  posx  ETV
vector 619  Scenario2_SlowSpeed.node[88].veinsmobility  posy  ETV
vector 625  Scenario2_SlowSpeed.node[89].veinsmobility  posx  ETV
vector 626  Scenario2_SlowSpeed.node[89].veinsmobility  posy  ETV
vector 632  Scenario2_SlowSpeed.node[90].veinsmobility  posx  ETV
vector 633  Scenario2_SlowSpeed.node[90].veinsmobility  posy  ETV
vector 509  Scenario2_SlowSpeed.node[72].veinsmobility  acceleration  ETV
vector 510  Scenario2_SlowSpeed.node[72].veinsmobility  co2emission  ETV
vector 516  Scenario2_SlowSpeed.node[73].veinsmobility  acceleration  ETV
vector 517  Scenario2_SlowSpeed.node[73].veinsmobility  co2emission  ETV
vector 523  Scenario2_SlowSpeed.node[74].veinsmobility  acceleration  ETV
vector 524  Scenario2_SlowSpeed.node[74].veinsmobility  co2emission  ETV
vector 530  Scenario2_SlowSpeed.node[75].veinsmobility  acceleration  ETV
vector 531  Scenario2_SlowSpeed.node[75].veinsmobility  co2emission  ETV
vector 537  Scenario2_SlowSpeed.node[76].veinsmobility  acceleration  ETV
vector 538  Scenario2_SlowSpeed.node[76].veinsmobility  co2emission  ETV
vector 544  Scenario2_SlowSpeed.node[77].veinsmobility  acceleration  ETV
vector 545  Scenario2_SlowSpeed.node[77].veinsmobility  co2emission  ETV
vector 551  Scenario2_SlowSpeed.node[78].veinsmobility  acceleration  ETV
vector 552  Scenario2_SlowSpeed.node[78].veinsmobility  co2emission  ETV
vector 558  Scenario2_SlowSpeed.node[79].veinsmobility  acceleration  ETV
vector 559  Scenario2_SlowSpeed.node[79].veinsmobility  co2emission  ETV
vector 564  Scenario2_SlowSpeed.node[80].veinsmobility  speed  ETV
vector 571  Scenario2_SlowSpeed.node[81].veinsmobility  speed  ETV
vector 578  Scenario2_SlowSpeed.node[82].veinsmobility  speed  ETV
vector 585  Scenario2_SlowSpeed.node[83].veinsmobility  speed  ETV
vector 592  Scenario2_SlowSpeed.node[84].veinsmobility  speed  ETV
vector 599  Scenario2_SlowSpeed.node[85].veinsmobility  speed  ETV
vector 639  Scenario2_SlowSpeed.node[91].veinsmobility  posx  ETV
vector 640  Scenario2_SlowSpeed.node[91].veinsmobility  posy  ETV
vector 565  Scenario2_SlowSpeed.node[80].veinsmobility  acceleration  ETV
vector 566  Scenario2_SlowSpeed.node[80].veinsmobility  co2emission  ETV
vector 572  Scenario2_SlowSpeed.node[81].veinsmobility  acceleration  ETV
vector 573  Scenario2_SlowSpeed.node[81].veinsmobility  co2emission  ETV
vector 579  Scenario2_SlowSpeed.node[82].veinsmobility  acceleration  ETV
vector 580  Scenario2_SlowSpeed.node[82].veinsmobility  co2emission  ETV
vector 586  Scenario2_SlowSpeed.node[83].veinsmobility  acceleration  ETV
vector 587  Scenario2_SlowSpeed.node[83].veinsmobility  co2emission  ETV
vector 593  Scenario2_SlowSpeed.node[84].veinsmobility  acceleration  ETV
vector 594  Scenario2_SlowSpeed.node[84].veinsmobility  co2emission  ETV
vector 600  Scenario2_SlowSpeed.node[85].veinsmobility  acceleration  ETV
vector 601  Scenario2_SlowSpeed.node[85].veinsmobility  co2emission  ETV
vector 606  Scenario2_SlowSpeed.node[86].veinsmobility  speed  ETV
vector 613  Scenario2_SlowSpeed.node[87].veinsmobility  speed  ETV
vector 620  Scenario2_SlowSpeed.node[88].veinsmobility  speed  ETV
vector 627  Scenario2_SlowSpeed.node[89].veinsmobility  speed  ETV
vector 634  Scenario2_SlowSpeed.node[90].veinsmobility  speed  ETV
vector 646  Scenario2_SlowSpeed.node[92].veinsmobility  posx  ETV
vector 647  Scenario2_SlowSpeed.node[92].veinsmobility  posy  ETV
vector 653  Scenario2_SlowSpeed.node[93].veinsmobility  posx  ETV
vector 654  Scenario2_SlowSpeed.node[93].veinsmobility  posy  ETV
vector 660  Scenario2_SlowSpeed.node[94].veinsmobility  posx  ETV
vector 661  Scenario2_SlowSpeed.node[94].veinsmobility  posy  ETV
vector 667  Scenario2_SlowSpeed.node[95].veinsmobility  posx  ETV
vector 668  Scenario2_SlowSpeed.node[95].veinsmobility  posy  ETV
vector 674  Scenario2_SlowSpeed.node[96].veinsmobility  posx  ETV
vector 675  Scenario2_SlowSpeed.node[96].veinsmobility  posy  ETV
vector 607  Scenario2_SlowSpeed.node[86].veinsmobility  acceleration  ETV
vector 608  Scenario2_SlowSpeed.node[86].veinsmobility  co2emission  ETV
vector 614  Scenario2_SlowSpeed.node[87].veinsmobility  acceleration  ETV
vector 615  Scenario2_SlowSpeed.node[87].veinsmobility  co2emission  ETV
vector 621  Scenario2_SlowSpeed.node[88].veinsmobility  acceleration  ETV
vector 622  Scenario2_SlowSpeed.node[88].veinsmobility  co2emission  ETV
vector 628  Scenario2_SlowSpeed.node[89].veinsmobility  acceleration  ETV
vector 629  Scenario2_SlowSpeed.node[89].veinsmobility  co2emission  ETV
vector 635  Scenario2_SlowSpeed.node[90].veinsmobility  acceleration  ETV
vector 636  Scenario2_SlowSpeed.node[90].veinsmobility  co2emission  ETV
vector 641  Scenario2_SlowSpeed.node[91].veinsmobility  speed  ETV
vector 681  Scenario2_SlowSpeed.node[97].veinsmobility  posx  ETV
vector 682  Scenario2_SlowSpeed.node[97].veinsmobility  posy  ETV
vector 688  Scenario2_SlowSpeed.node[98].veinsmobility  posx  ETV
vector 689  Scenario2_SlowSpeed.node[98].veinsmobility  posy  ETV
vector 695  Scenario2_SlowSpeed.node[99].veinsmobility  posx  ETV
vector 696  Scenario2_SlowSpeed.node[99].veinsmobility  posy  ETV
vector 702  Scenario2_SlowSpeed.node[100].veinsmobility  posx  ETV
vector 703  Scenario2_SlowSpeed.node[100].veinsmobility  posy  ETV
vector 709  Scenario2_SlowSpeed.node[101].veinsmobility  posx  ETV
vector 710  Scenario2_SlowSpeed.node[101].veinsmobility  posy  ETV
vector 716  Scenario2_SlowSpeed.node[102].veinsmobility  posx  ETV
vector 717  Scenario2_SlowSpeed.node[102].veinsmobility  posy  ETV
vector 642  Scenario2_SlowSpeed.node[91].veinsmobility  acceleration  ETV
vector 643  Scenario2_SlowSpeed.node[91].veinsmobility  co2emission  ETV
vector 648  Scenario2_SlowSpeed.node[92].veinsmobility  speed  ETV
vector 655  Scenario2_SlowSpeed.node[93].veinsmobility  speed  ETV
vector 662  Scenario2_SlowSpeed.node[94].veinsmobility  speed  ETV
vector 669  Scenario2_SlowSpeed.node[95].veinsmobility  speed  ETV
vector 676  Scenario2_SlowSpeed.node[96].veinsmobility  speed  ETV
vector 723  Scenario2_SlowSpeed.node[103].veinsmobility  posx  ETV
vector 724  Scenario2_SlowSpeed.node[103].veinsmobility  posy  ETV
vector 730  Scenario2_SlowSpeed.node[104].veinsmobility  posx  ETV
vector 731  Scenario2_SlowSpeed.node[104].veinsmobility  posy  ETV
vector 737  Scenario2_SlowSpeed.node[105].veinsmobility  posx  ETV
vector 738  Scenario2_SlowSpeed.node[105].veinsmobility  posy  ETV
vector 744  Scenario2_SlowSpeed.node[106].veinsmobility  posx  ETV
vector 745  Scenario2_SlowSpeed.node[106].veinsmobility  posy  ETV
vector 751  Scenario2_SlowSpeed.node[107].veinsmobility  posx  ETV
vector 752  Scenario2_SlowSpeed.node[107].veinsmobility  posy  ETV
vector 649  Scenario2_SlowSpeed.node[92].veinsmobility  acceleration  ETV
vector 650  Scenario2_SlowSpeed.node[92].veinsmobility  co2emission  ETV
vector 656  Scenario2_SlowSpeed.node[93].veinsmobility  acceleration  ETV
vector 657  Scenario2_SlowSpeed.node[93].veinsmobility  co2emission  ETV
vector 663  Scenario2_SlowSpeed.node[94].veinsmobility  acceleration  ETV
vector 664  Scenario2_SlowSpeed.node[94].veinsmobility  co2emission  ETV
vector 670  Scenario2_SlowSpeed.node[95].veinsmobility  acceleration  ETV
vector 671  Scenario2_SlowSpeed.node[95].veinsmobility  co2emission  ETV
vector 677  Scenario2_SlowSpeed.node[96].veinsmobility  acceleration  ETV
vector 678  Scenario2_SlowSpeed.node[96].veinsmobility  co2emission  ETV
vector 683  Scenario2_SlowSpeed.node[97].veinsmobility  speed  ETV
vector 690  Scenario2_SlowSpeed.node[98].veinsmobility  speed  ETV
vector 697  Scenario2_SlowSpeed.node[99].veinsmobility  speed  ETV
vector 704  Scenario2_SlowSpeed.node[100].veinsmobility  speed  ETV
vector 711  Scenario2_SlowSpeed.node[101].veinsmobility  speed  ETV
vector 718  Scenario2_SlowSpeed.node[102].veinsmobility  speed  ETV
vector 758  Scenario2_SlowSpeed.node[108].veinsmobility  posx  ETV
vector 759  Scenario2_SlowSpeed.node[108].veinsmobility  posy  ETV
vector 765  Scenario2_SlowSpeed.node[109].veinsmobility  posx  ETV
vector 766  Scenario2_SlowSpeed.node[109].veinsmobility  posy  ETV
vector 772  Scenario2_SlowSpeed.node[110].veinsmobility  posx  ETV
vector 773  Scenario2_SlowSpeed.node[110].veinsmobility  posy  ETV
vector 779  Scenario2_SlowSpeed.node[111].veinsmobility  posx  ETV
vector 780  Scenario2_SlowSpeed.node[111].veinsmobility  posy  ETV
vector 786  Scenario2_SlowSpeed.node[112].veinsmobility  posx  ETV
vector 787  Scenario2_SlowSpeed.node[112].veinsmobility  posy  ETV
vector 793  Scenario2_SlowSpeed.node[113].veinsmobility  posx  ETV
vector 794  Scenario2_SlowSpeed.node[113].veinsmobility  posy  ETV
vector 684  Scenario2_SlowSpeed.node[97].veinsmobility  acceleration  ETV
vector 685  Scenario2_SlowSpeed.node[97].veinsmobility  co2emission  ETV
vector 691  Scenario2_SlowSpeed.node[98].veinsmobility  acceleration  ETV
vector 692  Scenario2_SlowSpeed.node[98].veinsmobility  co2emission  ETV
vector 698  Scenario2_SlowSpeed.node[99].veinsmobility  acceleration  ETV
vector 699  Scenario2_SlowSpeed.node[99].veinsmobility  co2emission  ETV
vector 705  Scenario2_SlowSpeed.node[100].veinsmobility  acceleration  ETV
vector 706  Scenario2_SlowSpeed.node[100].veinsmobility  co2emission  ETV
vector 712  Scenario2_SlowSpeed.node[101].veinsmobility  acceleration  ETV
vector 713  Scenario2_SlowSpeed.node[101].veinsmobility  co2emission  ETV
vector 719  Scenario2_SlowSpeed.node[102].veinsmobility  acceleration  ETV
vector 720  Scenario2_SlowSpeed.node[102].veinsmobility  co2emission  ETV
vector 725  Scenario2_SlowSpeed.node[103].veinsmobility  speed  ETV
vector 732  Scenario2_SlowSpeed.node[104].veinsmobility  speed  ETV
vector 739  Scenario2_SlowSpeed.node[105].veinsmobility  speed  ETV
vector 746  Scenario2_SlowSpeed.node[106].veinsmobility  speed  ETV
vector 753  Scenario2_SlowSpeed.node[107].veinsmobility  speed  ETV
vector 800  Scenario2_SlowSpeed.node[114].veinsmobility  posx  ETV
vector 801  Scenario2_SlowSpeed.node[114].veinsmobility  posy  ETV
vector 807  Scenario2_SlowSpeed.node[115].veinsmobility  posx  ETV
vector 808  Scenario2_SlowSpeed.node[115].veinsmobility  posy  ETV
vector 726  Scenario2_SlowSpeed.node[103].veinsmobility  acceleration  ETV
vector 727  Scenario2_SlowSpeed.node[103].veinsmobility  co2emission  ETV
vector 733  Scenario2_SlowSpeed.node[104].veinsmobility  acceleration  ETV
vector 734  Scenario2_SlowSpeed.node[104].veinsmobility  co2emission  ETV
vector 740  Scenario2_SlowSpeed.node[105].veinsmobility  acceleration  ETV
vector 741  Scenario2_SlowSpeed.node[105].veinsmobility  co2emission  ETV
vector 747  Scenario2_SlowSpeed.node[106].veinsmobility  acceleration  ETV
vector 748  Scenario2_SlowSpeed.node[106].veinsmobility  co2emission  ETV
vector 754  Scenario2_SlowSpeed.node[107].veinsmobility  acceleration  ETV
vector 755  Scenario2_SlowSpeed.node[107].veinsmobility  co2emission  ETV
vector 760  Scenario2_SlowSpeed.node[108].veinsmobility  speed  ETV
vector 767  Scenario2_SlowSpeed.node[109].veinsmobility  speed  ETV
vector 774  Scenario2_SlowSpeed.node[110].veinsmobility  speed  ETV
vector 781  Scenario2_SlowSpeed.node[111].veinsmobility  speed  ETV
vector 788  Scenario2_SlowSpeed.node[112].veinsmobility  speed  ETV
vector 795  Scenario2_SlowSpeed.node[113].veinsmobility  speed  ETV
vector 814  Scenario2_SlowSpeed.node[116].veinsmobility  posx  ETV
vector 815  Scenario2_SlowSpeed.node[116].veinsmobility  posy  ETV
vector 821  Scenario2_SlowSpeed.node[117].veinsmobility  posx  ETV
vector 822  Scenario2_SlowSpeed.node[117].veinsmobility  posy  ETV
vector 828  Scenario2_SlowSpeed.node[118].veinsmobility  posx  ETV
vector 829  Scenario2_SlowSpeed.node[118].veinsmobility  posy  ETV
vector 835  Scenario2_SlowSpeed.node[119].veinsmobility  posx  ETV
vector 836  Scenario2_SlowSpeed.node[119].veinsmobility  posy  ETV
vector 842  Scenario2_SlowSpeed.node[120].veinsmobility  posx  ETV
vector 843  Scenario2_SlowSpeed.node[120].veinsmobility  posy  ETV
vector 849  Scenario2_SlowSpeed.node[121].veinsmobility  posx  ETV
vector 850  Scenario2_SlowSpeed.node[121].veinsmobility  posy  ETV
vector 856  Scenario2_SlowSpeed.node[122].veinsmobility  posx  ETV
vector 857  Scenario2_SlowSpeed.node[122].veinsmobility  posy  ETV
vector 863  Scenario2_SlowSpeed.node[123].veinsmobility  posx  ETV
vector 864  Scenario2_SlowSpeed.node[123].veinsmobility  posy  ETV
vector 870  Scenario2_SlowSpeed.node[124].veinsmobility  posx  ETV
vector 871  Scenario2_SlowSpeed.node[124].veinsmobility  posy  ETV
vector 761  Scenario2_SlowSpeed.node[108].veinsmobility  acceleration  ETV
vector 762  Scenario2_SlowSpeed.node[108].veinsmobility  co2emission  ETV
vector 768  Scenario2_SlowSpeed.node[109].veinsmobility  acceleration  ETV
vector 769  Scenario2_SlowSpeed.node[109].veinsmobility  co2emission  ETV
vector 775  Scenario2_SlowSpeed.node[110].veinsmobility  acceleration  ETV
vector 776  Scenario2_SlowSpeed.node[110].veinsmobility  co2emission  ETV
vector 782  Scenario2_SlowSpeed.node[111].veinsmobility  acceleration  ETV
vector 783  Scenario2_SlowSpeed.node[111].veinsmobility  co2emission  ETV
vector 789  Scenario2_SlowSpeed.node[112].veinsmobility  acceleration  ETV
vector 790  Scenario2_SlowSpeed.node[112].veinsmobility  co2emission  ETV
vector 796  Scenario2_SlowSpeed.node[113].veinsmobility  acceleration  ETV
vector 797  Scenario2_SlowSpeed.node[113].veinsmobility  co2emission  ETV
vector 802  Scenario2_SlowSpeed.node[114].veinsmobility  speed  ETV
vector 809  Scenario2_SlowSpeed.node[115].veinsmobility  speed  ETV
vector 877  Scenario2_SlowSpeed.node[125].veinsmobility  posx  ETV
vector 878  Scenario2_SlowSpeed.node[125].veinsmobility  posy  ETV
vector 884  Scenario2_SlowSpeed.node[126].veinsmobility  posx  ETV
vector 885  Scenario2_SlowSpeed.node[126].veinsmobility  posy  ETV
vector 891  Scenario2_SlowSpeed.node[127].veinsmobility  posx  ETV
vector 892  Scenario2_SlowSpeed.node[127].veinsmobility  posy  ETV
vector 803  Scenario2_SlowSpeed.node[114].veinsmobility  acceleration  ETV
vector 804  Scenario2_SlowSpeed.node[114].veinsmobility  co2emission  ETV
vector 810  Scenario2_SlowSpeed.node[115].veinsmobility  acceleration  ETV
vector 811  Scenario2_SlowSpeed.node[115].veinsmobility  co2emission  ETV
vector 816  Scenario2_SlowSpeed.node[116].veinsmobility  speed  ETV
vector 823  Scenario2_SlowSpeed.node[117].veinsmobility  speed  ETV
vector 830  Scenario2_SlowSpeed.node[118].veinsmobility  speed  ETV
vector 837  Scenario2_SlowSpeed.node[119].veinsmobility  speed  ETV
vector 844  Scenario2_SlowSpeed.node[120].veinsmobility  speed  ETV
vector 851  Scenario2_SlowSpeed.node[121].veinsmobility  speed  ETV
vector 858  Scenario2_SlowSpeed.node[122].veinsmobility  speed  ETV
vector 865  Scenario2_SlowSpeed.node[123].veinsmobility  speed  ETV
vector 872  Scenario2_SlowSpeed.node[124].veinsmobility  speed  ETV
vector 898  Scenario2_SlowSpeed.node[128].veinsmobility  posx  ETV
vector 899  Scenario2_SlowSpeed.node[128].veinsmobility  posy  ETV
vector 905  Scenario2_SlowSpeed.node[129].veinsmobility  posx  ETV
vector 906  Scenario2_SlowSpeed.node[129].veinsmobility  posy  ETV
vector 912  Scenario2_SlowSpeed.node[130].veinsmobility  posx  ETV
vector 913  Scenario2_SlowSpeed.node[130].veinsmobility  posy  ETV
vector 919  Scenario2_SlowSpeed.node[131].veinsmobility  posx  ETV
vector 920  Scenario2_SlowSpeed.node[131].veinsmobility  posy  ETV
vector 926  Scenario2_SlowSpeed.node[132].veinsmobility  posx  ETV
vector 927  Scenario2_SlowSpeed.node[132].veinsmobility  posy  ETV
vector 933  Scenario2_SlowSpeed.node[133].veinsmobility  posx  ETV
vector 934  Scenario2_SlowSpeed.node[133].veinsmobility  posy  ETV
vector 940  Scenario2_SlowSpeed.node[134].veinsmobility  posx  ETV
vector 941  Scenario2_SlowSpeed.node[134].veinsmobility  posy  ETV
vector 947  Scenario2_SlowSpeed.node[135].veinsmobility  posx  ETV
vector 948  Scenario2_SlowSpeed.node[135].veinsmobility  posy  ETV
vector 954  Scenario2_SlowSpeed.node[136].veinsmobility  posx  ETV
vector 955  Scenario2_SlowSpeed.node[136].veinsmobility  posy  ETV
vector 961  Scenario2_SlowSpeed.node[137].veinsmobility  posx  ETV
vector 962  Scenario2_SlowSpeed.node[137].veinsmobility  posy  ETV
vector 968  Scenario2_SlowSpeed.node[138].veinsmobility  posx  ETV
vector 969  Scenario2_SlowSpeed.node[138].veinsmobility  posy  ETV
vector 975  Scenario2_SlowSpeed.node[139].veinsmobility  posx  ETV
vector 976  Scenario2_SlowSpeed.node[139].veinsmobility  posy  ETV
vector 982  Scenario2_SlowSpeed.node[140].veinsmobility  posx  ETV
vector 983  Scenario2_SlowSpeed.node[140].veinsmobility  posy  ETV
vector 817  Scenario2_SlowSpeed.node[116].veinsmobility  acceleration  ETV
vector 818  Scenario2_SlowSpeed.node[116].veinsmobility  co2emission  ETV
vector 824  Scenario2_SlowSpeed.node[117].veinsmobility  acceleration  ETV
vector 825  Scenario2_SlowSpeed.node[117].veinsmobility  co2emission  ETV
vector 831  Scenario2_SlowSpeed.node[118].veinsmobility  acceleration  ETV
vector 832  Scenario2_SlowSpeed.node[118].veinsmobility  co2emission  ETV
vector 838  Scenario2_SlowSpeed.node[119].veinsmobility  acceleration  ETV
vector 839  Scenario2_SlowSpeed.node[119].veinsmobility  co2emission  ETV
vector 845  Scenario2_SlowSpeed.node[120].veinsmobility  acceleration  ETV
vector 846  Scenario2_SlowSpeed.node[120].veinsmobility  co2emission  ETV
vector 852  Scenario2_SlowSpeed.node[121].veinsmobility  acceleration  ETV
vector 853  Scenario2_SlowSpeed.node[121].veinsmobility  co2emission  ETV
vector 859  Scenario2_SlowSpeed.node[122].veinsmobility  acceleration  ETV
vector 860  Scenario2_SlowSpeed.node[122].veinsmobility  co2emission  ETV
vector 866  Scenario2_SlowSpeed.node[123].veinsmobility  acceleration  ETV
vector 867  Scenario2_SlowSpeed.node[123].veinsmobility  co2emission  ETV
vector 873  Scenario2_SlowSpeed.node[124].veinsmobility  acceleration  ETV
vector 874  Scenario2_SlowSpeed.node[124].veinsmobility  co2emission  ETV
vector 879  Scenario2_SlowSpeed.node[125].veinsmobility  speed  ETV
vector 886  Scenario2_SlowSpeed.node[126].veinsmobility  speed  ETV
vector 893  Scenario2_SlowSpeed.node[127].veinsmobility  speed  ETV
vector 989  Scenario2_SlowSpeed.node[141].veinsmobility  posx  ETV
vector 990  Scenario2_SlowSpeed.node[141].veinsmobility  posy  ETV
vector 996  Scenario2_SlowSpeed.node[142].veinsmobility  posx  ETV
vector 997  Scenario2_SlowSpeed.node[142].veinsmobility  posy  ETV
vector 1003  Scenario2_SlowSpeed.node[143].veinsmobility  posx  ETV
vector 1004  Scenario2_SlowSpeed.node[143].veinsmobility  posy  ETV
vector 1010  Scenario2_SlowSpeed.node[144].veinsmobility  posx  ETV
vector 1011  Scenario2_SlowSpeed.node[144].veinsmobility  posy  ETV
vector 1017  Scenario2_SlowSpeed.node[145].veinsmobility  posx  ETV
vector 1018  Scenario2_SlowSpeed.node[145].veinsmobility  posy  ETV
vector 1024  Scenario2_SlowSpeed.node[146].veinsmobility  posx  ETV
vector 1025  Scenario2_SlowSpeed.node[146].veinsmobility  posy  ETV
vector 880  Scenario2_SlowSpeed.node[125].veinsmobility  acceleration  ETV
vector 881  Scenario2_SlowSpeed.node[125].veinsmobility  co2emission  ETV
vector 887  Scenario2_SlowSpeed.node[126].veinsmobility  acceleration  ETV
vector 888  Scenario2_SlowSpeed.node[126].veinsmobility  co2emission  ETV
vector 894  Scenario2_SlowSpeed.node[127].veinsmobility  acceleration  ETV
vector 895  Scenario2_SlowSpeed.node[127].veinsmobility  co2emission  ETV
vector 900  Scenario2_SlowSpeed.node[128].veinsmobility  speed  ETV
vector 907  Scenario2_SlowSpeed.node[129].veinsmobility  speed  ETV
vector 914  Scenario2_SlowSpeed.node[130].veinsmobility  speed  ETV
vector 921  Scenario2_SlowSpeed.node[131].veinsmobility  speed  ETV
vector 928  Scenario2_SlowSpeed.node[132].veinsmobility  speed  ETV
vector 935  Scenario2_SlowSpeed.node[133].veinsmobility  speed  ETV
vector 942  Scenario2_SlowSpeed.node[134].veinsmobility  speed  ETV
vector 949  Scenario2_SlowSpeed.node[135].veinsmobility  speed  ETV
vector 956  Scenario2_SlowSpeed.node[136].veinsmobility  speed  ETV
vector 963  Scenario2_SlowSpeed.node[137].veinsmobility  speed  ETV
vector 970  Scenario2_SlowSpeed.node[138].veinsmobility  speed  ETV
vector 977  Scenario2_SlowSpeed.node[139].veinsmobility  speed  ETV
vector 984  Scenario2_SlowSpeed.node[140].veinsmobility  speed  ETV
vector 1031  Scenario2_SlowSpeed.node[147].veinsmobility  posx  ETV
vector 1032  Scenario2_SlowSpeed.node[147].veinsmobility  posy  ETV
vector 1038  Scenario2_SlowSpeed.node[148].veinsmobility  posx  ETV
vector 1039  Scenario2_SlowSpeed.node[148].veinsmobility  posy  ETV
vector 1045  Scenario2_SlowSpeed.node[149].veinsmobility  posx  ETV
vector 1046  Scenario2_SlowSpeed.node[149].veinsmobility  posy  ETV
vector 1052  Scenario2_SlowSpeed.node[150].veinsmobility  posx  ETV
vector 1053  Scenario2_SlowSpeed.node[150].veinsmobility  posy  ETV
vector 1059  Scenario2_SlowSpeed.node[151].veinsmobility  posx  ETV
vector 1060  Scenario2_SlowSpeed.node[151].veinsmobility  posy  ETV
vector 901  Scenario2_SlowSpeed.node[128].veinsmobility  acceleration  ETV
vector 902  Scenario2_SlowSpeed.node[128].veinsmobility  co2emission  ETV
vector 908  Scenario2_SlowSpeed.node[129].veinsmobility  acceleration  ETV
vector 909  Scenario2_SlowSpeed.node[129].veinsmobility  co2emission  ETV
vector 915  Scenario2_SlowSpeed.node[130].veinsmobility  acceleration  ETV
vector 916  Scenario2_SlowSpeed.node[130].veinsmobility  co2emission  ETV
vector 922  Scenario2_SlowSpeed.node[131].veinsmobility  acceleration  ETV
vector 923  Scenario2_SlowSpeed.node[131].veinsmobility  co2emission  ETV
vector 929  Scenario2_SlowSpeed.node[132].veinsmobility  acceleration  ETV
vector 930  Scenario2_SlowSpeed.node[132].veinsmobility  co2emission  ETV
vector 936  Scenario2_SlowSpeed.node[133].veinsmobility  acceleration  ETV
vector 937  Scenario2_SlowSpeed.node[133].veinsmobility  co2emission  ETV
vector 943  Scenario2_SlowSpeed.node[134].veinsmobility  acceleration  ETV
vector 944  Scenario2_SlowSpeed.node[134].veinsmobility  co2emission  ETV
vector 950  Scenario2_SlowSpeed.node[135].veinsmobility  acceleration  ETV
vector 951  Scenario2_SlowSpeed.node[135].veinsmobility  co2emission  ETV
vector 957  Scenario2_SlowSpeed.node[136].veinsmobility  acceleration  ETV
vector 958  Scenario2_SlowSpeed.node[136].veinsmobility  co2emission  ETV
vector 964  Scenario2_SlowSpeed.node[137].veinsmobility  acceleration  ETV
vector 965  Scenario2_SlowSpeed.node[137].veinsmobility  co2emission  ETV
vector 971  Scenario2_SlowSpeed.node[138].veinsmobility  acceleration  ETV
vector 972  Scenario2_SlowSpeed.node[138].veinsmobility  co2emission  ETV
vector 978  Scenario2_SlowSpeed.node[139].veinsmobility  acceleration  ETV
vector 979  Scenario2_SlowSpeed.node[139].veinsmobility  co2emission  ETV
vector 985  Scenario2_SlowSpeed.node[140].veinsmobility  acceleration  ETV
vector 986  Scenario2_SlowSpeed.node[140].veinsmobility  co2emission  ETV
vector 991  Scenario2_SlowSpeed.node[141].veinsmobility  speed  ETV
vector 998  Scenario2_SlowSpeed.node[142].veinsmobility  speed  ETV
vector 1005  Scenario2_SlowSpeed.node[143].veinsmobility  speed  ETV
vector 1012  Scenario2_SlowSpeed.node[144].veinsmobility  speed  ETV
vector 1019  Scenario2_SlowSpeed.node[145].veinsmobility  speed  ETV
vector 1026  Scenario2_SlowSpeed.node[146].veinsmobility  speed  ETV
vector 1066  Scenario2_SlowSpeed.node[152].veinsmobility  posx  ETV
vector 1067  Scenario2_SlowSpeed.node[152].veinsmobility  posy  ETV
vector 1073  Scenario2_SlowSpeed.node[153].veinsmobility  posx  ETV
vector 1074  Scenario2_SlowSpeed.node[153].veinsmobility  posy  ETV
vector 1080  Scenario2_SlowSpeed.node[154].veinsmobility  posx  ETV
vector 1081  Scenario2_SlowSpeed.node[154].veinsmobility  posy  ETV
vector 1087  Scenario2_SlowSpeed.node[155].veinsmobility  posx  ETV
vector 1088  Scenario2_SlowSpeed.node[155].veinsmobility  posy  ETV
vector 1094  Scenario2_SlowSpeed.node[156].veinsmobility  posx  ETV
vector 1095  Scenario2_SlowSpeed.node[156].veinsmobility  posy  ETV
vector 992  Scenario2_SlowSpeed.node[141].veinsmobility  acceleration  ETV
vector 993  Scenario2_SlowSpeed.node[141].veinsmobility  co2emission  ETV
vector 999  Scenario2_SlowSpeed.node[142].veinsmobility  acceleration  ETV
vector 1000  Scenario2_SlowSpeed.node[142].veinsmobility  co2emission  ETV
vector 1006  Scenario2_SlowSpeed.node[143].veinsmobility  acceleration  ETV
vector 1007  Scenario2_SlowSpeed.node[143].veinsmobility  co2emission  ETV
vector 1013  Scenario2_SlowSpeed.node[144].veinsmobility  acceleration  ETV
vector 1014  Scenario2_SlowSpeed.node[144].veinsmobility  co2emission  ETV
vector 1020  Scenario2_SlowSpeed.node[145].veinsmobility  acceleration  ETV
vector 1021  Scenario2_SlowSpeed.node[145].veinsmobility  co2emission  ETV
vector 1027  Scenario2_SlowSpeed.node[146].veinsmobility  acceleration  ETV
vector 1028  Scenario2_SlowSpeed.node[146].veinsmobility  co2emission  ETV
vector 1033  Scenario2_SlowSpeed.node[147].veinsmobility  speed  ETV
vector 1040  Scenario2_SlowSpeed.node[148].veinsmobility  speed  ETV
vector 1047  Scenario2_SlowSpeed.node[149].veinsmobility  speed  ETV
vector 1054  Scenario2_SlowSpeed.node[150].veinsmobility  speed  ETV
vector 1061  Scenario2_SlowSpeed.node[151].veinsmobility  speed  ETV
vector 1101  Scenario2_SlowSpeed.node[157].veinsmobility  posx  ETV
vector 1102  Scenario2_SlowSpeed.node[157].veinsmobility  posy  ETV
vector 1108  Scenario2_SlowSpeed.node[158].veinsmobility  posx  ETV
vector 1109  Scenario2_SlowSpeed.node[158].veinsmobility  posy  ETV
vector 1115  Scenario2_SlowSpeed.node[159].veinsmobility  posx  ETV
vector 1116  Scenario2_SlowSpeed.node[159].veinsmobility  posy  ETV
vector 1122  Scenario2_SlowSpeed.node[160].veinsmobility  posx  ETV
vector 1123  Scenario2_SlowSpeed.node[160].veinsmobility  posy  ETV
vector 1034  Scenario2_SlowSpeed.node[147].veinsmobility  acceleration  ETV
vector 1035  Scenario2_SlowSpeed.node[147].veinsmobility  co2emission  ETV
vector 1041  Scenario2_SlowSpeed.node[148].veinsmobility  acceleration  ETV
vector 1042  Scenario2_SlowSpeed.node[148].veinsmobility  co2emission  ETV
vector 1048  Scenario2_SlowSpeed.node[149].veinsmobility  acceleration  ETV
vector 1049  Scenario2_SlowSpeed.node[149].veinsmobility  co2emission  ETV
vector 1055  Scenario2_SlowSpeed.node[150].veinsmobility  acceleration  ETV
vector 1056  Scenario2_SlowSpeed.node[150].veinsmobility  co2emission  ETV
vector 1062  Scenario2_SlowSpeed.node[151].veinsmobility  acceleration  ETV
vector 1063  Scenario2_SlowSpeed.node[151].veinsmobility  co2emission  ETV
vector 1068  Scenario2_SlowSpeed.node[152].veinsmobility  speed  ETV
vector 1075  Scenario2_SlowSpeed.node[153].veinsmobility  speed  ETV
vector 1082  Scenario2_SlowSpeed.node[154].veinsmobility  speed  ETV
vector 1089  Scenario2_SlowSpeed.node[155].veinsmobility  speed  ETV
vector 1096  Scenario2_SlowSpeed.node[156].veinsmobility  speed  ETV
vector 1129  Scenario2_SlowSpeed.node[161].veinsmobility  posx  ETV
vector 1130  Scenario2_SlowSpeed.node[161].veinsmobility  posy  ETV
vector 1136  Scenario2_SlowSpeed.node[162].veinsmobility  posx  ETV
vector 1137  Scenario2_SlowSpeed.node[162].veinsmobility  posy  ETV
vector 1143  Scenario2_SlowSpeed.node[163].veinsmobility  posx  ETV
vector 1144  Scenario2_SlowSpeed.node[163].veinsmobility  posy  ETV
vector 1069  Scenario2_SlowSpeed.node[152].veinsmobility  acceleration  ETV
vector 1070  Scenario2_SlowSpeed.node[152].veinsmobility  co2emission  ETV
vector 1076  Scenario2_SlowSpeed.node[153].veinsmobility  acceleration  ETV
vector 1077  Scenario2_SlowSpeed.node[153].veinsmobility  co2emission  ETV
vector 1083  Scenario2_SlowSpeed.node[154].veinsmobility  acceleration  ETV
vector 1084  Scenario2_SlowSpeed.node[154].veinsmobility  co2emission  ETV
vector 1090  Scenario2_SlowSpeed.node[155].veinsmobility  acceleration  ETV
vector 1091  Scenario2_SlowSpeed.node[155].veinsmobility  co2emission  ETV
vector 1097  Scenario2_SlowSpeed.node[156].veinsmobility  acceleration  ETV
vector 1098  Scenario2_SlowSpeed.node[156].veinsmobility  co2emission  ETV
vector 1103  Scenario2_SlowSpeed.node[157].veinsmobility  speed  ETV
vector 1110  Scenario2_SlowSpeed.node[158].veinsmobility  speed  ETV
vector 1117  Scenario2_SlowSpeed.node[159].veinsmobility  speed  ETV
vector 1124  Scenario2_SlowSpeed.node[160].veinsmobility  speed  ETV
vector 1150  Scenario2_SlowSpeed.node[164].veinsmobility  posx  ETV
vector 1151  Scenario2_SlowSpeed.node[164].veinsmobility  posy  ETV
vector 1157  Scenario2_SlowSpeed.node[165].veinsmobility  posx  ETV
vector 1158  Scenario2_SlowSpeed.node[165].veinsmobility  posy  ETV
vector 1164  Scenario2_SlowSpeed.node[166].veinsmobility  posx  ETV
vector 1165  Scenario2_SlowSpeed.node[166].veinsmobility  posy  ETV
vector 1171  Scenario2_SlowSpeed.node[167].veinsmobility  posx  ETV
vector 1172  Scenario2_SlowSpeed.node[167].veinsmobility  posy  ETV
vector 1178  Scenario2_SlowSpeed.node[168].veinsmobility  posx  ETV
vector 1179  Scenario2_SlowSpeed.node[168].veinsmobility  posy  ETV
vector 1185  Scenario2_SlowSpeed.node[169].veinsmobility  posx  ETV
vector 1186  Scenario2_SlowSpeed.node[169].veinsmobility  posy  ETV
vector 1192  Scenario2_SlowSpeed.node[170].veinsmobility  posx  ETV
vector 1193  Scenario2_SlowSpeed.node[170].veinsmobility  posy  ETV
vector 1199  Scenario2_SlowSpeed.node[171].veinsmobility  posx  ETV
vector 1200  Scenario2_SlowSpeed.node[171].veinsmobility  posy  ETV
vector 1104  Scenario2_SlowSpeed.node[157].veinsmobility  acceleration  ETV
vector 1105  Scenario2_SlowSpeed.node[157].veinsmobility  co2emission  ETV
vector 1111  Scenario2_SlowSpeed.node[158].veinsmobility  acceleration  ETV
vector 1112  Scenario2_SlowSpeed.node[158].veinsmobility  co2emission  ETV
vector 1118  Scenario2_SlowSpeed.node[159].veinsmobility  acceleration  ETV
vector 1119  Scenario2_SlowSpeed.node[159].veinsmobility  co2emission  ETV
vector 1125  Scenario2_SlowSpeed.node[160].veinsmobility  acceleration  ETV
vector 1126  Scenario2_SlowSpeed.node[160].veinsmobility  co2emission  ETV
vector 1131  Scenario2_SlowSpeed.node[161].veinsmobility  speed  ETV
vector 1138  Scenario2_SlowSpeed.node[162].veinsmobility  speed  ETV
vector 1145  Scenario2_SlowSpeed.node[163].veinsmobility  speed  ETV
vector 1206  Scenario2_SlowSpeed.node[172].veinsmobility  posx  ETV
vector 1207  Scenario2_SlowSpeed.node[172].veinsmobility  posy  ETV
vector 1213  Scenario2_SlowSpeed.node[173].veinsmobility  posx  ETV
vector 1214  Scenario2_SlowSpeed.node[173].veinsmobility  posy  ETV
vector 1132  Scenario2_SlowSpeed.node[161].veinsmobility  acceleration  ETV
vector 1133  Scenario2_SlowSpeed.node[161].veinsmobility  co2emission  ETV
vector 1139  Scenario2_SlowSpeed.node[162].veinsmobility  acceleration  ETV
vector 1140  Scenario2_SlowSpeed.node[162].veinsmobility  co2emission  ETV
vector 1146  Scenario2_SlowSpeed.node[163].veinsmobility  acceleration  ETV
vector 1147  Scenario2_SlowSpeed.node[163].veinsmobility  co2emission  ETV
vector 1152  Scenario2_SlowSpeed.node[164].veinsmobility  speed  ETV
vector 1159  Scenario2_SlowSpeed.node[165].veinsmobility  speed  ETV
vector 1166  Scenario2_SlowSpeed.node[166].veinsmobility  speed  ETV
vector 1173  Scenario2_SlowSpeed.node[167].veinsmobility  speed  ETV
vector 1180  Scenario2_SlowSpeed.node[168].veinsmobility  speed  ETV
vector 1187  Scenario2_SlowSpeed.node[169].veinsmobility  speed  ETV
vector 1194  Scenario2_SlowSpeed.node[170].veinsmobility  speed  ETV
vector 1201  Scenario2_SlowSpeed.node[171].veinsmobility  speed  ETV
vector 1220  Scenario2_SlowSpeed.node[174].veinsmobility  posx  ETV
vector 1221  Scenario2_SlowSpeed.node[174].veinsmobility  posy  ETV
vector 1227  Scenario2_SlowSpeed.node[175].veinsmobility  posx  ETV
vector 1228  Scenario2_SlowSpeed.node[175].veinsmobility  posy  ETV
vector 1234  Scenario2_SlowSpeed.node[176].veinsmobility  posx  ETV
vector 1235  Scenario2_SlowSpeed.node[176].veinsmobility  posy  ETV
vector 1153  Scenario2_SlowSpeed.node[164].veinsmobility  acceleration  ETV
vector 1154  Scenario2_SlowSpeed.node[164].veinsmobility  co2emission  ETV
vector 1160  Scenario2_SlowSpeed.node[165].veinsmobility  acceleration  ETV
vector 1161  Scenario2_SlowSpeed.node[165].veinsmobility  co2emission  ETV
vector 1167  Scenario2_SlowSpeed.node[166].veinsmobility  acceleration  ETV
vector 1168  Scenario2_SlowSpeed.node[166].veinsmobility  co2emission  ETV
vector 1174  Scenario2_SlowSpeed.node[167].veinsmobility  acceleration  ETV
vector 1175  Scenario2_SlowSpeed.node[167].veinsmobility  co2emission  ETV
vector 1181  Scenario2_SlowSpeed.node[168].veinsmobility  acceleration  ETV
vector 1182  Scenario2_SlowSpeed.node[168].veinsmobility  co2emission  ETV
vector 1188  Scenario2_SlowSpeed.node[169].veinsmobility  acceleration  ETV
vector 1189  Scenario2_SlowSpeed.node[169].veinsmobility  co2emission  ETV
vector 1195  Scenario2_SlowSpeed.node[170].veinsmobility  acceleration  ETV
vector 1196  Scenario2_SlowSpeed.node[170].veinsmobility  co2emission  ETV
vector 1202  Scenario2_SlowSpeed.node[171].veinsmobility  acceleration  ETV
vector 1203  Scenario2_SlowSpeed.node[171].veinsmobility  co2emission  ETV
vector 1208  Scenario2_SlowSpeed.node[172].veinsmobility  speed  ETV
vector 1215  Scenario2_SlowSpeed.node[173].veinsmobility  speed  ETV
vector 1241  Scenario2_SlowSpeed.node[177].veinsmobility  posx  ETV
vector 1242  Scenario2_SlowSpeed.node[177].veinsmobility  posy  ETV
vector 1248  Scenario2_SlowSpeed.node[178].veinsmobility  posx  ETV
vector 1249  Scenario2_SlowSpeed.node[178].veinsmobility  posy  ETV
vector 1255  Scenario2_SlowSpeed.node[179].veinsmobility  posx  ETV
vector 1256  Scenario2_SlowSpeed.node[179].veinsmobility  posy  ETV
vector 1262  Scenario2_SlowSpeed.node[180].veinsmobility  posx  ETV
vector 1263  Scenario2_SlowSpeed.node[180].veinsmobility  posy  ETV
vector 1269  Scenario2_SlowSpeed.node[181].veinsmobility  posx  ETV
vector 1270  Scenario2_SlowSpeed.node[181].veinsmobility  posy  ETV
vector 1276  Scenario2_SlowSpeed.node[182].veinsmobility  posx  ETV
vector 1277  Scenario2_SlowSpeed.node[182].veinsmobility  posy  ETV
vector 1283  Scenario2_SlowSpeed.node[183].veinsmobility  posx  ETV
vector 1284  Scenario2_SlowSpeed.node[183].veinsmobility  posy  ETV
vector 1290  Scenario2_SlowSpeed.node[184].veinsmobility  posx  ETV
vector 1291  Scenario2_SlowSpeed.node[184].veinsmobility  posy  ETV
vector 1297  Scenario2_SlowSpeed.node[185].veinsmobility  posx  ETV
vector 1298  Scenario2_SlowSpeed.node[185].veinsmobility  posy  ETV
vector 1209  Scenario2_SlowSpeed.node[172].veinsmobility  acceleration  ETV
vector 1210  Scenario2_SlowSpeed.node[172].veinsmobility  co2emission  ETV
vector 1216  Scenario2_SlowSpeed.node[173].veinsmobility  acceleration  ETV
vector 1217  Scenario2_SlowSpeed.node[173].veinsmobility  co2emission  ETV
vector 1222  Scenario2_SlowSpeed.node[174].veinsmobility  speed  ETV
vector 1229  Scenario2_SlowSpeed.node[175].veinsmobility  speed  ETV
vector 1236  Scenario2_SlowSpeed.node[176].veinsmobility  speed  ETV
vector 1304  Scenario2_SlowSpeed.node[186].veinsmobility  posx  ETV
vector 1305  Scenario2_SlowSpeed.node[186].veinsmobility  posy  ETV
vector 1311  Scenario2_SlowSpeed.node[187].veinsmobility  posx  ETV
vector 1312  Scenario2_SlowSpeed.node[187].veinsmobility  posy  ETV
vector 1223  Scenario2_SlowSpeed.node[174].veinsmobility  acceleration  ETV
vector 1224  Scenario2_SlowSpeed.node[174].veinsmobility  co2emission  ETV
vector 1230  Scenario2_SlowSpeed.node[175].veinsmobility  acceleration  ETV
vector 1231  Scenario2_SlowSpeed.node[175].veinsmobility  co2emission  ETV
vector 1237  Scenario2_SlowSpeed.node[176].veinsmobility  acceleration  ETV
vector 1238  Scenario2_SlowSpeed.node[176].veinsmobility  co2emission  ETV
vector 1243  Scenario2_SlowSpeed.node[177].veinsmobility  speed  ETV
vector 1250  Scenario2_SlowSpeed.node[178].veinsmobility  speed  ETV
vector 1257  Scenario2_SlowSpeed.node[179].veinsmobility  speed  ETV
vector 1264  Scenario2_SlowSpeed.node[180].veinsmobility  speed  ETV
vector 1271  Scenario2_SlowSpeed.node[181].veinsmobility  speed  ETV
vector 1278  Scenario2_SlowSpeed.node[182].veinsmobility  speed  ETV
vector 1285  Scenario2_SlowSpeed.node[183].veinsmobility  speed  ETV
vector 1292  Scenario2_SlowSpeed.node[184].veinsmobility  speed  ETV
vector 1299  Scenario2_SlowSpeed.node[185].veinsmobility  speed  ETV
vector 1318  Scenario2_SlowSpeed.node[188].veinsmobility  posx  ETV
vector 1319  Scenario2_SlowSpeed.node[188].veinsmobility  posy  ETV
vector 1325  Scenario2_SlowSpeed.node[189].veinsmobility  posx  ETV
vector 1326  Scenario2_SlowSpeed.node[189].veinsmobility  posy  ETV
vector 1332  Scenario2_SlowSpeed.node[190].veinsmobility  posx  ETV
vector 1333  Scenario2_SlowSpeed.node[190].veinsmobility  posy  ETV
vector 1244  Scenario2_SlowSpeed.node[177].veinsmobility  acceleration  ETV
vector 1245  Scenario2_SlowSpeed.node[177].veinsmobility  co2emission  ETV
vector 1251  Scenario2_SlowSpeed.node[178].veinsmobility  acceleration  ETV
vector 1252  Scenario2_SlowSpeed.node[178].veinsmobility  co2emission  ETV
vector 1258  Scenario2_SlowSpeed.node[179].veinsmobility  acceleration  ETV
vector 1259  Scenario2_SlowSpeed.node[179].veinsmobility  co2emission  ETV
vector 1265  Scenario2_SlowSpeed.node[180].veinsmobility  acceleration  ETV
vector 1266  Scenario2_SlowSpeed.node[180].veinsmobility  co2emission  ETV
vector 1272  Scenario2_SlowSpeed.node[181].veinsmobility  acceleration  ETV
vector 1273  Scenario2_SlowSpeed.node[181].veinsmobility  co2emission  ETV
vector 1279  Scenario2_SlowSpeed.node[182].veinsmobility  acceleration  ETV
vector 1280  Scenario2_SlowSpeed.node[182].veinsmobility  co2emission  ETV
vector 1286  Scenario2_SlowSpeed.node[183].veinsmobility  acceleration  ETV
vector 1287  Scenario2_SlowSpeed.node[183].veinsmobility  co2emission  ETV
vector 1293  Scenario2_SlowSpeed.node[184].veinsmobility  acceleration  ETV
vector 1294  Scenario2_SlowSpeed.node[184].veinsmobility  co2emission  ETV
vector 1300  Scenario2_SlowSpeed.node[185].veinsmobility  acceleration  ETV
vector 1301  Scenario2_SlowSpeed.node[185].veinsmobility  co2emission  ETV
vector 1306  Scenario2_SlowSpeed.node[186].veinsmobility  speed  ETV
vector 1313  Scenario2_SlowSpeed.node[187].veinsmobility  speed  ETV
vector 1339  Scenario2_SlowSpeed.node[191].veinsmobility  posx  ETV
vector 1340  Scenario2_SlowSpeed.node[191].veinsmobility  posy  ETV
vector 1346  Scenario2_SlowSpeed.node[192].veinsmobility  posx  ETV
vector 1347  Scenario2_SlowSpeed.node[192].veinsmobility  posy  ETV
vector 1353  Scenario2_SlowSpeed.node[193].veinsmobility  posx  ETV
vector 1354  Scenario2_SlowSpeed.node[193].veinsmobility  posy  ETV
vector 1360  Scenario2_SlowSpeed.node[194].veinsmobility  posx  ETV
vector 1361  Scenario2_SlowSpeed.node[194].veinsmobility  posy  ETV
vector 1367  Scenario2_SlowSpeed.node[195].veinsmobility  posx  ETV
vector 1368  Scenario2_SlowSpeed.node[195].veinsmobility  posy  ETV
vector 1374  Scenario2_SlowSpeed.node[196].veinsmobility  posx  ETV
vector 1375  Scenario2_SlowSpeed.node[196].veinsmobility  posy  ETV
vector 1307  Scenario2_SlowSpeed.node[186].veinsmobility  acceleration  ETV
vector 1308  Scenario2_SlowSpeed.node[186].veinsmobility  co2emission  ETV
vector 1314  Scenario2_SlowSpeed.node[187].veinsmobility  acceleration  ETV
vector 1315  Scenario2_SlowSpeed.node[187].veinsmobility  co2emission  ETV
vector 1320  Scenario2_SlowSpeed.node[188].veinsmobility  speed  ETV
vector 1327  Scenario2_SlowSpeed.node[189].veinsmobility  speed  ETV
vector 1334  Scenario2_SlowSpeed.node[190].veinsmobility  speed  ETV
vector 1381  Scenario2_SlowSpeed.node[197].veinsmobility  posx  ETV
vector 1382  Scenario2_SlowSpeed.node[197].veinsmobility  posy  ETV
vector 1388  Scenario2_SlowSpeed.node[198].veinsmobility  posx  ETV
vector 1389  Scenario2_SlowSpeed.node[198].veinsmobility  posy  ETV
vector 1395  Scenario2_SlowSpeed.node[199].veinsmobility  posx  ETV
vector 1396  Scenario2_SlowSpeed.node[199].veinsmobility  posy  ETV
vector 1402  Scenario2_SlowSpeed.node[200].veinsmobility  posx  ETV
vector 1403  Scenario2_SlowSpeed.node[200].veinsmobility  posy  ETV
vector 1321  Scenario2_SlowSpeed.node[188].veinsmobility  acceleration  ETV
vector 1322  Scenario2_SlowSpeed.node[188].veinsmobility  co2emission  ETV
vector 1328  Scenario2_SlowSpeed.node[189].veinsmobility  acceleration  ETV
vector 1329  Scenario2_SlowSpeed.node[189].veinsmobility  co2emission  ETV
vector 1335  Scenario2_SlowSpeed.node[190].veinsmobility  acceleration  ETV
vector 1336  Scenario2_SlowSpeed.node[190].veinsmobility  co2emission  ETV
vector 1341  Scenario2_SlowSpeed.node[191].veinsmobility  speed  ETV
vector 1348  Scenario2_SlowSpeed.node[192].veinsmobility  speed  ETV
vector 1355  Scenario2_SlowSpeed.node[193].veinsmobility  speed  ETV
vector 1362  Scenario2_SlowSpeed.node[194].veinsmobility  speed  ETV
vector 1369  Scenario2_SlowSpeed.node[195].veinsmobility  speed  ETV
vector 1376  Scenario2_SlowSpeed.node[196].veinsmobility  speed  ETV
vector 1409  Scenario2_SlowSpeed.node[201].veinsmobility  posx  ETV
vector 1410  Scenario2_SlowSpeed.node[201].veinsmobility  posy  ETV
vector 1416  Scenario2_SlowSpeed.node[202].veinsmobility  posx  ETV
vector 1417  Scenario2_SlowSpeed.node[202].veinsmobility  posy  ETV
vector 1423  Scenario2_SlowSpeed.node[203].veinsmobility  posx  ETV
vector 1424  Scenario2_SlowSpeed.node[203].veinsmobility  posy  ETV
vector 1430  Scenario2_SlowSpeed.node[204].veinsmobility  posx  ETV
vector 1431  Scenario2_SlowSpeed.node[204].veinsmobility  posy  ETV
vector 1437  Scenario2_SlowSpeed.node[205].veinsmobility  posx  ETV
vector 1438  Scenario2_SlowSpeed.node[205].veinsmobility  posy  ETV
vector 1342  Scenario2_SlowSpeed.node[191].veinsmobility  acceleration  ETV
vector 1343  Scenario2_SlowSpeed.node[191].veinsmobility  co2emission  ETV
vector 1349  Scenario2_SlowSpeed.node[192].veinsmobility  acceleration  ETV
vector 1350  Scenario2_SlowSpeed.node[192].veinsmobility  co2emission  ETV
vector 1356  Scenario2_SlowSpeed.node[193].veinsmobility  acceleration  ETV
vector 1357  Scenario2_SlowSpeed.node[193].veinsmobility  co2emission  ETV
vector 1363  Scenario2_SlowSpeed.node[194].veinsmobility  acceleration  ETV
vector 1364  Scenario2_SlowSpeed.node[194].veinsmobility  co2emission  ETV
vector 1370  Scenario2_SlowSpeed.node[195].veinsmobility  acceleration  ETV
vector 1371  Scenario2_SlowSpeed.node[195].veinsmobility  co2emission  ETV
vector 1377  Scenario2_SlowSpeed.node[196].veinsmobility  acceleration  ETV
vector 1378  Scenario2_SlowSpeed.node[196].veinsmobility  co2emission  ETV
vector 1383  Scenario2_SlowSpeed.node[197].veinsmobility  speed  ETV
vector 1390  Scenario2_SlowSpeed.node[198].veinsmobility  speed  ETV
vector 1397  Scenario2_SlowSpeed.node[199].veinsmobility  speed  ETV
vector 1404  Scenario2_SlowSpeed.node[200].veinsmobility  speed  ETV
vector 1444  Scenario2_SlowSpeed.node[206].veinsmobility  posx  ETV
vector 1445  Scenario2_SlowSpeed.node[206].veinsmobility  posy  ETV
vector 1451  Scenario2_SlowSpeed.node[207].veinsmobility  posx  ETV
vector 1452  Scenario2_SlowSpeed.node[207].veinsmobility  posy  ETV
vector 1458  Scenario2_SlowSpeed.node[208].veinsmobility  posx  ETV
vector 1459  Scenario2_SlowSpeed.node[208].veinsmobility  posy  ETV
vector 1465  Scenario2_SlowSpeed.node[209].veinsmobility  posx  ETV
vector 1466  Scenario2_SlowSpeed.node[209].veinsmobility  posy  ETV
vector 1472  Scenario2_SlowSpeed.node[210].veinsmobility  posx  ETV
vector 1473  Scenario2_SlowSpeed.node[210].veinsmobility  posy  ETV
vector 1479  Scenario2_SlowSpeed.node[211].veinsmobility  posx  ETV
vector 1480  Scenario2_SlowSpeed.node[211].veinsmobility  posy  ETV
vector 1486  Scenario2_SlowSpeed.node[212].veinsmobility  posx  ETV
vector 1487  Scenario2_SlowSpeed.node[212].veinsmobility  posy  ETV
vector 1493  Scenario2_SlowSpeed.node[213].veinsmobility  posx  ETV
vector 1494  Scenario2_SlowSpeed.node[213].veinsmobility  posy  ETV
vector 1384  Scenario2_SlowSpeed.node[197].veinsmobility  acceleration  ETV
vector 1385  Scenario2_SlowSpeed.node[197].veinsmobility  co2emission  ETV
vector 1391  Scenario2_SlowSpeed.node[198].veinsmobility  acceleration  ETV
vector 1392  Scenario2_SlowSpeed.node[198].veinsmobility  co2emission  ETV
vector 1398  Scenario2_SlowSpeed.node[199].veinsmobility  acceleration  ETV
vector 1399  Scenario2_SlowSpeed.node[199].veinsmobility  co2emission  ETV
vector 1405  Scenario2_SlowSpeed.node[200].veinsmobility  acceleration  ETV
vector 1406  Scenario2_SlowSpeed.node[200].veinsmobility  co2emission  ETV
vector 1411  Scenario2_SlowSpeed.node[201].veinsmobility  speed  ETV
vector 1418  Scenario2_SlowSpeed.node[202].veinsmobility  speed  ETV
vector 1425  Scenario2_SlowSpeed.node[203].veinsmobility  speed  ETV
vector 1432  Scenario2_SlowSpeed.node[204].veinsmobility  speed  ETV
vector 1439  Scenario2_SlowSpeed.node[205].veinsmobility  speed  ETV
vector 1500  Scenario2_SlowSpeed.node[214].veinsmobility  posx  ETV
vector 1501  Scenario2_SlowSpeed.node[214].veinsmobility  posy  ETV
vector 1412  Scenario2_SlowSpeed.node[201].veinsmobility  acceleration  ETV
vector 1413  Scenario2_SlowSpeed.node[201].veinsmobility  co2emission  ETV
vector 1419  Scenario2_SlowSpeed.node[202].veinsmobility  acceleration  ETV
vector 1420  Scenario2_SlowSpeed.node[202].veinsmobility  co2emission  ETV
vector 1426  Scenario2_SlowSpeed.node[203].veinsmobility  acceleration  ETV
vector 1427  Scenario2_SlowSpeed.node[203].veinsmobility  co2emission  ETV
vector 1433  Scenario2_SlowSpeed.node[204].veinsmobility  acceleration  ETV
vector 1434  Scenario2_SlowSpeed.node[204].veinsmobility  co2emission  ETV
vector 1440  Scenario2_SlowSpeed.node[205].veinsmobility  acceleration  ETV
vector 1441  Scenario2_SlowSpeed.node[205].veinsmobility  co2emission  ETV
vector 1446  Scenario2_SlowSpeed.node[206].veinsmobility  speed  ETV
vector 1453  Scenario2_SlowSpeed.node[207].veinsmobility  speed  ETV
vector 1460  Scenario2_SlowSpeed.node[208].veinsmobility  speed  ETV
vector 1467  Scenario2_SlowSpeed.node[209].veinsmobility  speed  ETV
vector 1474  Scenario2_SlowSpeed.node[210].veinsmobility  speed  ETV
vector 1481  Scenario2_SlowSpeed.node[211].veinsmobility  speed  ETV
vector 1488  Scenario2_SlowSpeed.node[212].veinsmobility  speed  ETV
vector 1495  Scenario2_SlowSpeed.node[213].veinsmobility  speed  ETV
vector 1507  Scenario2_SlowSpeed.node[215].veinsmobility  posx  ETV
vector 1508  Scenario2_SlowSpeed.node[215].veinsmobility  posy  ETV
vector 1514  Scenario2_SlowSpeed.node[216].veinsmobility  posx  ETV
vector 1515  Scenario2_SlowSpeed.node[216].veinsmobility  posy  ETV
vector 1521  Scenario2_SlowSpeed.node[217].veinsmobility  posx  ETV
vector 1522  Scenario2_SlowSpeed.node[217].veinsmobility  posy  ETV
vector 1447  Scenario2_SlowSpeed.node[206].veinsmobility  acceleration  ETV
vector 1448  Scenario2_SlowSpeed.node[206].veinsmobility  co2emission  ETV
vector 1454  Scenario2_SlowSpeed.node[207].veinsmobility  acceleration  ETV
vector 1455  Scenario2_SlowSpeed.node[207].veinsmobility  co2emission  ETV
vector 1461  Scenario2_SlowSpeed.node[208].veinsmobility  acceleration  ETV
vector 1462  Scenario2_SlowSpeed.node[208].veinsmobility  co2emission  ETV
vector 1468  Scenario2_SlowSpeed.node[209].veinsmobility  acceleration  ETV
vector 1469  Scenario2_SlowSpeed.node[209].veinsmobility  co2emission  ETV
vector 1475  Scenario2_SlowSpeed.node[210].veinsmobility  acceleration  ETV
vector 1476  Scenario2_SlowSpeed.node[210].veinsmobility  co2emission  ETV
vector 1482  Scenario2_SlowSpeed.node[211].veinsmobility  acceleration  ETV
vector 1483  Scenario2_SlowSpeed.node[211].veinsmobility  co2emission  ETV
vector 1489  Scenario2_SlowSpeed.node[212].veinsmobility  acceleration  ETV
vector 1490  Scenario2_SlowSpeed.node[212].veinsmobility  co2emission  ETV
vector 1496  Scenario2_SlowSpeed.node[213].veinsmobility  acceleration  ETV
vector 1497  Scenario2_SlowSpeed.node[213].veinsmobility  co2emission  ETV
vector 1502  Scenario2_SlowSpeed.node[214].veinsmobility  speed  ETV
vector 1503  Scenario2_SlowSpeed.node[214].veinsmobility  acceleration  ETV
vector 1504  Scenario2_SlowSpeed.node[214].veinsmobility  co2emission  ETV
vector 1509  Scenario2_SlowSpeed.node[215].veinsmobility  speed  ETV
vector 1516  Scenario2_SlowSpeed.node[216].veinsmobility  speed  ETV
vector 1523  Scenario2_SlowSpeed.node[217].veinsmobility  speed  ETV
vector 1528  Scenario2_SlowSpeed.node[218].veinsmobility  posx  ETV
vector 1529  Scenario2_SlowSpeed.node[218].veinsmobility  posy  ETV
vector 1535  Scenario2_SlowSpeed.node[219].veinsmobility  posx  ETV
vector 1536  Scenario2_SlowSpeed.node[219].veinsmobility  posy  ETV
vector 1542  Scenario2_SlowSpeed.node[220].veinsmobility  posx  ETV
vector 1543  Scenario2_SlowSpeed.node[220].veinsmobility  posy  ETV
vector 1510  Scenario2_SlowSpeed.node[215].veinsmobility  acceleration  ETV
vector 1511  Scenario2_SlowSpeed.node[215].veinsmobility  co2emission  ETV
vector 1517  Scenario2_SlowSpeed.node[216].veinsmobility  acceleration  ETV
vector 1518  Scenario2_SlowSpeed.node[216].veinsmobility  co2emission  ETV
vector 1524  Scenario2_SlowSpeed.node[217].veinsmobility  acceleration  ETV
vector 1525  Scenario2_SlowSpeed.node[217].veinsmobility  co2emission  ETV
vector 1549  Scenario2_SlowSpeed.node[221].veinsmobility  posx  ETV
vector 1550  Scenario2_SlowSpeed.node[221].veinsmobility  posy  ETV
vector 1530  Scenario2_SlowSpeed.node[218].veinsmobility  speed  ETV
vector 1537  Scenario2_SlowSpeed.node[219].veinsmobility  speed  ETV
vector 1544  Scenario2_SlowSpeed.node[220].veinsmobility  speed  ETV
vector 1556  Scenario2_SlowSpeed.node[222].veinsmobility  posx  ETV
vector 1557  Scenario2_SlowSpeed.node[222].veinsmobility  posy  ETV
vector 1563  Scenario2_SlowSpeed.node[223].veinsmobility  posx  ETV
vector 1564  Scenario2_SlowSpeed.node[223].veinsmobility  posy  ETV
vector 1531  Scenario2_SlowSpeed.node[218].veinsmobility  acceleration  ETV
[...]
1094	9835227	17	1022.3247404501
1094	11116384	18	1022.3247404501
1094	12475843	19	1020.5771037347
1094	13880912	20	1016.7701722251
1094	15427450	21	1010.7864028899
1094	17005910	22	1003.09953154
1094	18650214	23	995.17179255838
1094	20441825	24	987.25122217602
1094	22270613	25	979.32895608869
1094	24164855	26	971.37833094756
1094	26177594	27	963.43831369252
1094	28264324	28	955.50521208732
1094	30461308	29	947.56594475552
1094	32825683	30	939.6495071022
1094	35208652	31	931.71999220237
1094	37642277	32	923.7787591844
1094	40083429	33	915.84982929059
1094	42768708	34	907.93025802991
1094	45273566	35	899.98117245972
1094	47833991	36	892.04397854002
1094	50409327	37	884.12910468555
1094	53010641	38	876.16004461058
1094	55643596	39	868.24080314667
1094	58302751	40	860.32070354527
1094	61006618	41	852.38182760449
1094	63714203	42	844.43848752954
1094	66474494	43	836.51482622309
1094	69241393	44	828.55737393159
1094	72055293	45	820.62296291897
1094	74874828	46	812.6754057627
1094	77731003	47	804.73161113868
1094	80591473	48	796.80962035597
1094	83489489	49	788.8891058194
1094	86406716	50	780.93562098906
1094	89354599	51	773.00984900323
1094	92317426	52	765.07168976641
1094	95312834	53	757.12997499099
1094	98320217	54	749.21185655511
1094	101367124	55	741.26339468728
1094	104425649	56	733.33130501088
1094	107538422	57	725.39252734623
1094	110645982	58	717.45917996871
1094	113813342	59	709.52739364538
1094	116979645	60	701.59418601546
1147	15427450	21	3.8019263958015
1147	17005910	22	4.9716098684907
1147	18650214	23	3.197512685636
1147	20441825	24	1.5347391770758
1147	22270613	25	1.4678968326839
1147	24164855	26	1.7036832141364
1147	26177594	27	1.5004266612818
1147	28264324	28	1.3945543159836
1147	30461308	29	1.622731660796
1147	32825683	30	1.6134123719286
1147	35208652	31	1.4850920515612
1147	37642277	32	1.5602802934744
1147	40083429	33	1.480290852998
1147	42768708	34	1.5469958945355
1147	45273566	35	1.6534110160998
1147	47833991	36	1.3498788587324
1147	50409327	37	1.6934282358408
1147	53010641	38	1.560294925523
1147	55643596	39	1.4837222384433
1147	58302751	40	1.6037952107895
1147	61006618	41	1.4047945084662
1147	63714203	42	1.6366677923223
1147	66474494	43	1.5453113096461
1147	69241393	44	1.4618696990362
1147	72055293	45	1.5892055570529
1147	74874828	46	1.6102891755502
1147	77731003	47	1.4974131584153
1147	80591473	48	1.577503722566
1147	83489489	49	1.4511510310826
1147	86406716	50	1.5357368961611
1147	89354599	51	1.5653889943514
1147	92317426	52	1.4374682240939
1147	95312834	53	1.572619613403
1147	98320217	54	1.5520500181519
1147	101367124	55	1.493927959335
1147	104425649	56	1.6860334339685
1147	107538422	57	1.4919515560907
1147	110645982	58	1.5882656449715
1147	113813342	59	1.4039865306301
1147	116979645	60	1.574883435968
1146	15427450	21	2.0178988911351
1146	17005910	22	2.0492382235313
1146	18650214	23	0.86785633564327
1146	20441825	24	-0.0019967524893589
1146	22270613	25	-0.035906046577729
1146	24164855	26	0.084235910195857
1146	26177594	27	-0.020826431536116
1146	28264324	28	-0.074191447093617
1146	30461308	29	0.044151564517525
1146	32825683	30	0.03779249166837
1146	35208652	31	-0.028195001480635
1146	37642277	32	0.010733177624643
1146	40083429	33	-0.030113555816934
1146	42768708	34	0.0046840772288856
1146	45273566	35	0.058002875603269
1146	47833991	36	-0.097694778288714
1146	50409327	37	0.079611553908325
1146	53010641	38	0.0098735468508675
1146	55643596	39	-0.029095375381876
1146	58302751	40	0.032390777799301
1146	61006618	41	-0.069385364949703
1146	63714203	42	0.050270329613704
1146	66474494	43	0.0025334273581397
1146	69241393	44	-0.039809044019785
1146	72055293	45	0.025940954543185
1146	74874828	46	0.035571343880147
1146	77731003	47	-0.022418529868592
1146	80591473	48	0.01866075563943
1146	83489489	49	-0.045768947331235
1146	86406716	50	-0.0014605486206714
1146	89354599	51	0.01356773491716
1146	92317426	52	-0.051824962205719
1146	95312834	53	0.018563814703374
1146	98320217	54	0.007506797590759
1146	101367124	55	-0.022255084391218
1146	104425649	56	0.075396005241201
1146	107538422	57	-0.024877209865954
1146	110645982	58	0.02450755524449
1146	113813342	59	-0.069667103579268
1146	116979645	60	0.019383062871639
1145	13880912	20	2.9961562340673
1145	15427450	21	5.0140551252025
1145	17005910	22	7.0632933487337
1145	18650214	23	7.931149684377
1145	20441825	24	7.9291529318877
1145	22270613	25	7.8932468853099
1145	24164855	26	7.9774827955058
1145	26177594	27	7.9566563639697
1145	28264324	28	7.8824649168761
1145	30461308	29	7.9266164813936
1145	32825683	30	7.9644089730619
1145	35208652	31	7.9362139715813
1145	37642277	32	7.946947149206
1145	40083429	33	7.916833593389
1145	42768708	34	7.9215176706179
1145	45273566	35	7.9795205462212
1145	47833991	36	7.8818257679325
1145	50409327	37	7.9614373218408
1145	53010641	38	7.9713108686917
1145	55643596	39	7.9422154933098
1145	58302751	40	7.9746062711091
1145	61006618	41	7.9052209061594
1145	63714203	42	7.9554912357731
1145	66474494	43	7.9580246631312
1145	69241393	44	7.9182156191114
1145	72055293	45	7.9441565736546
1145	74874828	46	7.9797279175348
1145	77731003	47	7.9573093876662
1145	80591473	48	7.9759701433056
1145	83489489	49	7.9302011959744
1145	86406716	50	7.9287406473537
1145	89354599	51	7.9423083822709
1145	92317426	52	7.8904834200651
1145	95312834	53	7.9090472347685
1145	98320217	54	7.9165540323593
1145	101367124	55	7.8942989479681
1145	104425649	56	7.9696949532093
1145	107538422	57	7.9448177433433
1145	110645982	58	7.9693252985878
1145	113813342	59	7.8996581950085
1145	116979645	60	7.9190412578802
1144	12475843	19	516.75
1144	13880912	20	516.75
1144	15427450	21	516.75
1144	17005910	22	516.75
1144	18650214	23	516.75
1144	20441825	24	516.75
1144	22270613	25	516.75
1144	24164855	26	516.75
1144	26177594	27	516.75
1144	28264324	28	516.75
1144	30461308	29	516.75
1144	32825683	30	516.75
1144	35208652	31	516.75
1144	37642277	32	516.75
1144	40083429	33	516.75
1144	42768708	34	516.75
1144	45273566	35	516.75
1144	47833991	36	516.75
1144	50409327	37	516.75
1144	53010641	38	516.75
1144	55643596	39	516.75
1144	58302751	40	516.75
1144	61006618	41	516.75
1144	63714203	42	516.75
1144	66474494	43	516.75
1144	69241393	44	516.75
1144	72055293	45	516.75
1144	74874828	46	516.75
1144	77731003	47	516.75
1144	80591473	48	516.75
1144	83489489	49	516.75
1144	86406716	50	516.75
1144	89354599	51	516.75
1144	92317426	52	516.75
1144	95312834	53	516.75
1144	98320217	54	516.75
1144	101367124	55	516.75
1144	104425649	56	516.75
1144	107538422	57	516.75
1144	110645982	58	516.75
1144	113813342	59	516.75
1144	116979645	60	516.75
1143	12475843	19	1022.1561316776
1143	13880912	20	1022.1561316776
1143	15427450	21	1020.0164379071
1143	17005910	22	1015.9385719104
1143	18650214	23	1009.832999757
1143	20441825	24	1002.0573917603
1143	22270613	25	994.12156059219
1143	24164855	26	986.17997235958
1143	26177594	27	978.24385199167
1143	28264324	28	970.31257844205
1143	30461308	29	962.39273455082
1143	32825683	30	954.47426672074
1143	35208652	31	946.52503440382
1143	37642277	32	938.5921045867
1143	40083429	33	930.65764664666
1143	42768708	34	922.71788864191
1143	45273566	35	914.77176274231
1143	47833991	36	906.84125635119
1143	50409327	37	898.9199968614
1143	53010641	38	890.97275367669
1143	55643596	39	883.0354925809
1143	58302751	40	875.11468982533
1143	61006618	41	867.17588721002
1143	63714203	42	859.23862487653
1143	66474494	43	851.30736357174
1143	69241393	44	843.37395357494
1143	72055293	45	835.44522473124
1143	74874828	46	827.52150133046
1143	77731003	47	819.57716319944
1143	80591473	48	811.63360666221
1143	83489489	49	803.67950462938
1143	86406716	50	795.73954999233
1143	89354599	51	787.81377325619
1143	92317426	52	779.87695020258
1143	95312834	53	771.94478321727
1143	98320217	54	764.00501032473
1143	101367124	55	756.07348431503
1143	104425649	56	748.13224323309
1143	107538422	57	740.2167478632
1143	110645982	58	732.28596661873
1143	113813342	59	724.3294350494
1143	116979645	60	716.40718171707
1217	18650214	23	4.2939252709198
1217	20441825	24	4.7886933012377
1217	22270613	25	2.4644661678392
1217	24164855	26	1.4353521466593
1217	26177594	27	1.5401214551848
1217	28264324	28	1.4808178040775
1217	30461308	29	1.6386121619255
1217	32825683	30	1.5326054353232
1217	35208652	31	1.6366419972408
1217	37642277	32	1.5727459471829
1217	40083429	33	1.3539563463872
1217	42768708	34	1.6936119336827
1217	45273566	35	1.4109544182431
1217	47833991	36	1.6455828791694
1217	50409327	37	1.3877136933626
1217	53010641	38	1.6986095735899
1217	55643596	39	1.5041822710701
1217	58302751	40	1.3784773866855
1217	61006618	41	1.7804458847413
1217	63714203	42	1.4780404284803
1217	66474494	43	1.4795535634548
1217	69241393	44	1.6210484382774
1217	72055293	45	1.4390695921448
1217	74874828	46	1.6914957426352
1217	77731003	47	1.3251742360691
1217	80591473	48	1.6428172612196
1217	83489489	49	1.4190533785605
1217	86406716	50	1.7219876632361
1217	89354599	51	1.3378740479978
1217	92317426	52	1.7791399479794
1217	95312834	53	1.4041094538543
1217	98320217	54	1.5213763720925
1217	101367124	55	1.4779829303784
1217	104425649	56	1.6889258499789
1217	107538422	57	1.5418450761708
1217	110645982	58	1.4525116526557
1217	113813342	59	1.6612583573886
1217	116979645	60	1.3700727438132
1216	18650214	23	2.1183048893744
1216	20441825	24	1.8174901204975
1216	22270613	25	0.48097187650675
1216	24164855	26	-0.053563091845717
1216	26177594	27	0.0013288329192438
1216	28264324	28	-0.028876177095808
1216	30461308	29	0.0520171243418
1216	32825683	30	-0.0032867232244458
1216	35208652	31	0.049126692805439
1216	37642277	32	0.015360639013816
1216	40083429	33	-0.096014435193502
1216	42768708	34	0.078817915450782
1216	45273566	35	-0.066410188658629
1216	47833991	36	0.054344320520759
1216	50409327	37	-0.07801366715692
1216	53010641	38	0.081785098330584
1216	55643596	39	-0.01879766075639
1216	58302751	40	-0.082404638554435
1216	61006618	41	0.12327534063719
1216	63714203	42	-0.032681743260473
1216	66474494	43	-0.030953135564923
1216	69241393	44	0.041426688681822
1216	72055293	45	-0.051842229091562
1216	74874828	46	0.076983757333364
1216	77731003	47	-0.11081519684056
1216	80591473	48	0.054052630353254
1216	83489489	49	-0.061236227140761
1216	86406716	50	0.093909119588789
1216	89354599	51	-0.10377156111645
1216	92317426	52	0.12270765879191
1216	95312834	53	-0.070196963248309
1216	98320217	54	-0.0084991151536817
1216	101367124	55	-0.03032381179044
1216	104425649	56	0.077268523517996
1216	107538422	57	0.00059120993595574
1216	110645982	58	-0.044685541419312
1216	113813342	59	0.062090562318917
1216	116979645	60	-0.087302928538993
1215	17005910	22	3.5498721347115
1215	18650214	23	5.668177024086
1215	20441825	24	7.4856671445835
1215	22270613	25	7.9666390210902
1215	24164855	26	7.9130759292445
1215	26177594	27	7.9144047621638
1215	28264324	28	7.885528585068
1215	30461308	29	7.9375457094098
1215	32825683	30	7.9342589861853
1215	35208652	31	7.9833856789907
1215	37642277	32	7.9987463180046
1215	40083429	33	7.9027318828111
1215	42768708	34	7.9815497982618
1215	45273566	35	7.9151396096032
1215	47833991	36	7.969483930124
1215	50409327	37	7.891470262967
1215	53010641	38	7.9732553612976
1215	55643596	39	7.9544577005412
1215	58302751	40	7.8720530619868
1215	61006618	41	7.995328402624
1215	63714203	42	7.9626466593635
1215	66474494	43	7.9316935237986
1215	69241393	44	7.9731202124804
1215	72055293	45	7.9212779833889
1215	74874828	46	7.9982617407222
1215	77731003	47	7.8874465438817
1215	80591473	48	7.9414991742349
1215	83489489	49	7.8802629470942
1215	86406716	50	7.974172066683
1215	89354599	51	7.8704005055665
1215	92317426	52	7.9931081643584
1215	95312834	53	7.9229112011101
1215	98320217	54	7.9144120859564
1215	101367124	55	7.884088274166
1215	104425649	56	7.961356797684
1215	107538422	57	7.9619480076199
1215	110645982	58	7.9172624662006
1215	113813342	59	7.9793530285195
1215	116979645	60	7.8920500999806
1214	15427450	21	516.75
1214	17005910	22	516.75
1214	18650214	23	516.75
1214	20441825	24	516.75
1214	22270613	25	516.75
1214	24164855	26	516.75
1214	26177594	27	516.75
1214	28264324	28	516.75
1214	30461308	29	516.75
1214	32825683	30	516.75
1214	35208652	31	516.75
1214	37642277	32	516.75
1214	40083429	33	516.75
1214	42768708	34	516.75
1214	45273566	35	516.75
1214	47833991	36	516.75
1214	50409327	37	516.75
1214	53010641	38	516.75
1214	55643596	39	516.75
1214	58302751	40	516.75
1214	61006618	41	516.75
1214	63714203	42	516.75
1214	66474494	43	516.75
1214	69241393	44	516.75
1214	72055293	45	516.75
1214	74874828	46	516.75
1214	77731003	47	516.75
1214	80591473	48	516.75
1214	83489489	49	516.75
1214	86406716	50	516.75
1214	89354599	51	516.75
1214	92317426	52	516.75
1214	95312834	53	516.75
1214	98320217	54	516.75
1214	101367124	55	516.75
1214	104425649	56	516.75
1214	107538422	57	516.75
1214	110645982	58	516.75
1214	113813342	59	516.75
1214	116979645	60	516.75
1213	15427450	21	1021.8799303682
1213	17005910	22	1021.8799303682
1213	18650214	23	1019.2264005864
1213	20441825	24	1014.5496129484
1213	22270613	25	1007.8592524495
1213	24164855	26	999.95746339951
1213	26177594	27	992.03395514041
1213	28264324	28	984.11131838101
1213	30461308	29	976.19115211956
1213	32825683	30	968.24380352219
1213	35208652	31	960.31586846132
1213	37642277	32	952.37935704927
1213	40083429	33	944.42968659162
1213	42768708	34	936.48405138449
1213	45273566	35	928.53356779834
1213	47833991	36	920.58537688641
1213	50409327	37	912.63818151879
1213	53010641	38	904.71815807032
1213	55643596	39	896.79280106485
1213	58302751	40	888.83925050996
1213	61006618	41	880.89305621242
1213	63714203	42	872.95028835057
1213	66474494	43	865.0138642313
1213	69241393	44	857.07358516211
1213	72055293	45	849.11812085743
1213	74874828	46	841.18398537311
1213	77731003	47	833.25459111405
1213	80591473	48	825.33592615478
1213	83489489	49	817.40298717558
1213	86406716	50	809.46811661435
1213	89354599	51	801.52703154354
1213	92317426	52	793.59383599274
1213	95312834	53	785.65439497234
1213	98320217	54	777.72352498403
1213	101367124	55	769.78817391144
1213	104425649	56	761.87007617833
1213	107538422	57	753.92912857706
1213	110645982	58	745.99471901068
1213	113813342	59	738.05541265217
1213	116979645	60	730.13023548352
1301	22270613	25	4.1443112197656
1301	24164855	26	5.2661786292565
1301	26177594	27	1.7401082354893
1301	28264324	28	1.374425408276
1301	30461308	29	1.5837624419547
1301	32825683	30	1.4385017268137
1301	35208652	31	1.7654930525882
1301	37642277	32	1.4367291541418
1301	40083429	33	1.5272259390588
1301	42768708	34	1.6204618993318
1301	45273566	35	1.5462029202847
1301	47833991	36	1.3947003275593
1301	50409327	37	1.6884284345595
1301	53010641	38	1.5399240644027
1301	55643596	39	1.4489413748608
1301	58302751	40	1.486543378614
1301	61006618	41	1.6687483626537
1301	63714203	42	1.3979306500124
1301	66474494	43	1.6293999438622
1301	69241393	44	1.5063589501679
1301	72055293	45	1.5564990297129
1301	74874828	46	1.4997739315826
1301	77731003	47	1.6756068664843
1301	80591473	48	1.4950372587217
1301	83489489	49	1.5970090501568
1301	86406716	50	1.2998191022041
1301	89354599	51	1.5552183348524
1301	92317426	52	1.7517316600423
1301	95312834	53	1.4172048824634
1301	98320217	54	1.5299450477676
1301	101367124	55	1.6004567639561
1301	104425649	56	1.6105229068714
1301	107538422	57	1.3657917989431
1301	110645982	58	1.7161492535376
1301	113813342	59	1.3124058653573
1301	116979645	60	1.5723009199915
1300	22270613	25	1.9076973545994
1300	24164855	26	1.9602178139286
1300	26177594	27	0.10223675250694
1300	28264324	28	-0.085487271999009
1300	30461308	29	0.023421234888955
1300	32825683	30	-0.051110587515868
1300	35208652	31	0.11530371641042
1300	37642277	32	-0.053749018080998
1300	40083429	33	-0.0062808234221299
1300	42768708	34	0.040831580592784
1300	45273566	35	0.0021471442934127
1300	47833991	36	-0.074749917211011
1300	50409327	37	0.076020515800919
1300	53010641	38	-0.0011216925806359
1300	55643596	39	-0.047081203928683
1300	58302751	40	-0.026596428584307
1300	61006618	41	0.066159846463706
1300	63714203	42	-0.072915566377342
1300	66474494	43	0.046737331091427
1300	69241393	44	-0.01694432811346
1300	72055293	45	0.0089661760209125
1300	74874828	46	-0.020036777313798
1300	77731003	47	0.06908845437225
1300	80591473	48	-0.023936229769606
1300	83489489	49	0.028113933135755
1300	86406716	50	-0.12383632793091
1300	89354599	51	0.010438013630919
1300	92317426	52	0.10864831942599
1300	95312834	53	-0.063424154242966
1300	98320217	54	-0.0042600614298136
1300	101367124	55	0.031465192332399
1300	104425649	56	0.035345497049857
1300	107538422	57	-0.08971387877129
1300	110645982	58	0.090186874917708
1300	113813342	59	-0.11722903724527
1300	116979645	60	0.019060310518835
1299	20441825	24	4.0273957115979
1299	22270613	25	5.9350930661972
1299	24164855	26	7.8953108801258
1299	26177594	27	7.9975476326328
1299	28264324	28	7.9120603606338
1299	30461308	29	7.9354815955227
1299	32825683	30	7.8843710080069
1299	35208652	31	7.9996747244173
1299	37642277	32	7.9459257063363
1299	40083429	33	7.9396448829141
1299	42768708	34	7.9804764635069
1299	45273566	35	7.9826236078003
1299	47833991	36	7.9078736905893
1299	50409327	37	7.9838942063903
1299	53010641	38	7.9827725138096
1299	55643596	39	7.9356913098809
1299	58302751	40	7.9090948812966
1299	61006618	41	7.9752547277603
1299	63714203	42	7.902339161383
1299	66474494	43	7.9490764924744
1299	69241393	44	7.932132164361
1299	72055293	45	7.9410983403819
1299	74874828	46	7.9210615630681
1299	77731003	47	7.9901500174403
1299	80591473	48	7.9662137876707
1299	83489489	49	7.9943277208065
1299	86406716	50	7.8704913928756
1299	89354599	51	7.8809294065065
1299	92317426	52	7.9895777259325
1299	95312834	53	7.9261535716895
1299	98320217	54	7.9218935102597
1299	101367124	55	7.9533587025921
1299	104425649	56	7.9887041996419
1299	107538422	57	7.8989903208707
1299	110645982	58	7.9891771957884
1299	113813342	59	7.8719481585431
1299	116979645	60	7.8910084690619
1298	18650214	23	516.75
1298	20441825	24	516.75
1298	22270613	25	516.75
1298	24164855	26	516.75
1298	26177594	27	516.75
1298	28264324	28	516.75
1298	30461308	29	516.75
1298	32825683	30	516.75
1298	35208652	31	516.75
1298	37642277	32	516.75
1298	40083429	33	516.75
1298	42768708	34	516.75
1298	45273566	35	516.75
1298	47833991	36	516.75
1298	50409327	37	516.75
1298	53010641	38	516.75
1298	55643596	39	516.75
1298	58302751	40	516.75
1298	61006618	41	516.75
1298	63714203	42	516.75
1298	66474494	43	516.75
1298	69241393	44	516.75
1298	72055293	45	516.75
1298	74874828	46	516.75
1298	77731003	47	516.75
1298	80591473	48	516.75
1298	83489489	49	516.75
1298	86406716	50	516.75
1298	89354599	51	516.75
1298	92317426	52	516.75
1298	95312834	53	516.75
1298	98320217	54	516.75
1298	101367124	55	516.75
1298	104425649	56	516.75
1298	107538422	57	516.75
1298	110645982	58	516.75
1298	113813342	59	516.75
1298	116979645	60	516.75
1297	18650214	23	1021.3436682704
1297	20441825	24	1021.3436682704
1297	22270613	25	1018.1927496076
1297	24164855	26	1013.2420885777
1297	26177594	27	1006.2434546072
1297	28264324	28	998.30311265875
1297	30461308	29	990.38130317006
1297	32825683	30	982.46756304179
1297	35208652	31	974.54484941592
1297	37642277	32	966.61275952428
1297	40083429	33	958.67639935271
1297	42768708	34	950.74034426463
1297	45273566	35	942.80769243081
1297	47833991	36	934.86138543526
1297	50409327	37	926.93984091099
1297	53010641	38	918.97646431494
1297	55643596	39	911.04002189859
1297	58302751	40	903.11454500012
1297	61006618	41	895.18737593922
1297	63714203	42	887.24440875259
1297	66474494	43	879.30172350008
1297	69241393	44	871.37261868385
1297	72055293	45	863.42203355733
1297	74874828	46	855.47312389436
1297	77731003	47	847.53436763724
1297	80591473	48	839.59173051331
1297	83489489	49	831.67647360694
1297	86406716	50	823.73132145978
1297	89354599	51	815.79839868883
1297	92317426	52	807.87716392643
1297	95312834	53	799.95563593071
1297	98320217	54	792.01325412536
1297	101367124	55	784.07769339041
1297	104425649	56	776.12871011735
1297	107538422	57	768.18459571056
1297	110645982	58	760.26485610965
1297	113813342	59	752.34537564172
1297	116979645	60	744.4117857342
