version 2
run WithoutChannelSwitching-TrAD-0-20180208-05:54:05-12267
attr configname WithoutChannelSwitching-TrAD
attr datetime 20180208-05:54:05
attr experiment WithoutChannelSwitching-TrAD
attr inifile omnetpp.ini
attr iterationvars ""
attr iterationvarsf ""
attr measurement ""
attr network Scenario2
attr processid 12267
attr repetition 0
attr replication #0
attr resultdir results
attr runnumber 0
attr seedset 0
param **.coreDebug false
param **.debug false
param *.**.nic.mac1609_4.bitrate 6Mbps
param *.**.nic.mac1609_4.txPower 20mW
param *.**.nic.mac1609_4.useServiceChannel false
param *.**.nic.phy80211p.analogueModels "xmldoc(\"config.xml\")"
param *.**.nic.phy80211p.antenna "xmldoc(\"antenna.xml\", \"/root/Antenna[@id='monopole']\")"
param *.**.nic.phy80211p.collectCollisionStatistics true
param *.**.nic.phy80211p.decider "xmldoc(\"config.xml\")"
param *.**.nic.phy80211p.sensitivity -89dBm
param *.**.nic.phy80211p.thermalNoise -110dBm
param *.**.nic.phy80211p.usePropagationDelay true
param *.**.nic.phy80211p.useThermalNoise true
param *.annotations.draw true
param *.connectionManager.drawMaxIntfDist false
param *.connectionManager.maxInterfDist 2600m
param *.connectionManager.sendDirect true
param *.manager.autoShutdown true
param *.manager.host "\"localhost\""
param *.manager.launchConfig "xmldoc(\"mycross.launchd.xml\")"
param *.manager.port 9999
param *.manager.updateInterval 1s
param *.node[*].appl.TrAD true
param *.node[*].appl.TrAD_Neig 25
param *.node[*].appl.TrAD_R 366
param *.node[*].appl.TrAD_alpha 10
param *.node[*].appl.TrAD_ti 0.005
param *.node[*].appl.beaconInterval 1s
param *.node[*].appl.dataOnSch false
param *.node[*].appl.headerLength "80 bit"
param *.node[*].appl.sendBeacons true
param *.node[*].applType "\"myWaveAppLayer\""
param *.node[*].veinsmobility.x 0
param *.node[*].veinsmobility.y 0
param *.node[*].veinsmobility.z 1.895
param *.node[*].veinsmobilityType.debug true
param *.node[20].appl.Accident_start 30
param *.node[40].veinsmobility.accidentCount 1
param *.node[40].veinsmobility.accidentDuration 40s
param *.node[40].veinsmobility.accidentStart 30s
param *.obstacles.debug false
param *.playgroundSizeX 2500m
param *.playgroundSizeY 2500m
param *.playgroundSizeZ 50m
param *.rsu[*].appl.beaconInterval 0.1s
param *.rsu[*].appl.beaconUserPriority 7
param *.rsu[*].appl.dataOnSch false
param *.rsu[*].appl.dataUserPriority 5
param *.rsu[*].appl.headerLength "80 bit"
param *.rsu[*].appl.sendBeacons false
param *.rsu[*].applType "\"TraCIDemoRSU11p\""
param *.rsu[0].mobility.x 500
param *.rsu[0].mobility.y 500
param *.rsu[0].mobility.z 3

scalar Scenario2.node[18].appl 	generatedWSMs 	1
scalar Scenario2.node[18].appl 	receivedWSMs 	3
scalar Scenario2.node[18].appl 	generatedBSMs 	33
scalar Scenario2.node[18].appl 	receivedBSMs 	2397
scalar Scenario2.node[18].appl 	generatedWSAs 	0
scalar Scenario2.node[18].appl 	receivedWSAs 	0
scalar Scenario2.node[18].appl 	delayWSM 	0.005479380513
scalar Scenario2.node[18].appl 	Dist_Propa 	242.93776588612
scalar Scenario2.node[18].nic.phy80211p 	busyTime 	0.0078087272727271
scalar Scenario2.node[18].nic.phy80211p 	ncollisions 	21
scalar Scenario2.node[18].nic.mac1609_4 	ReceivedUnicastPackets 	0
scalar Scenario2.node[18].nic.mac1609_4 	ReceivedBroadcasts 	2400
scalar Scenario2.node[18].nic.mac1609_4 	SentPackets 	34
scalar Scenario2.node[18].nic.mac1609_4 	SNIRLostPackets 	47
scalar Scenario2.node[18].nic.mac1609_4 	RXTXLostPackets 	4
scalar Scenario2.node[18].nic.mac1609_4 	TotalLostPackets 	51
scalar Scenario2.node[18].nic.mac1609_4 	DroppedPacketsInMac 	0
scalar Scenario2.node[18].nic.mac1609_4 	TooLittleTime 	0
scalar Scenario2.node[18].nic.mac1609_4 	TimesIntoBackoff 	34
scalar Scenario2.node[18].nic.mac1609_4 	SlotsBackoff 	58
scalar Scenario2.node[18].nic.mac1609_4 	NumInternalContention 	0
scalar Scenario2.node[18].nic.mac1609_4 	totalBusyTime 	0.256122000411
scalar Scenario2.node[18].veinsmobility 	startTime 	1
scalar Scenario2.node[18].veinsmobility 	totalTime 	32
scalar Scenario2.node[18].veinsmobility 	stopTime 	34
scalar Scenario2.node[18].veinsmobility 	minSpeed 	2.6377290236039
scalar Scenario2.node[18].veinsmobility 	maxSpeed 	18.998816868074
scalar Scenario2.node[18].veinsmobility 	totalDistance 	522.11524646103
scalar Scenario2.node[18].veinsmobility 	totalCO2Emission 	121.58310432878
scalar Scenario2.node[72].appl 	generatedWSMs 	0
scalar Scenario2.node[72].appl 	receivedWSMs 	0
scalar Scenario2.node[72].appl 	generatedBSMs 	32
scalar Scenario2.node[72].appl 	receivedBSMs 	2264
scalar Scenario2.node[72].appl 	generatedWSAs 	0
scalar Scenario2.node[72].appl 	receivedWSAs 	0
scalar Scenario2.node[72].appl 	delayWSM 	-1
scalar Scenario2.node[72].appl 	Dist_Propa 	-1
scalar Scenario2.node[72].nic.phy80211p 	busyTime 	0.0074327499999999
scalar Scenario2.node[72].nic.phy80211p 	ncollisions 	17
scalar Scenario2.node[72].nic.mac1609_4 	ReceivedUnicastPackets 	0
scalar Scenario2.node[72].nic.mac1609_4 	ReceivedBroadcasts 	2264
scalar Scenario2.node[72].nic.mac1609_4 	SentPackets 	32
scalar Scenario2.node[72].nic.mac1609_4 	SNIRLostPackets 	23
scalar Scenario2.node[72].nic.mac1609_4 	RXTXLostPackets 	0
scalar Scenario2.node[72].nic.mac1609_4 	TotalLostPackets 	23
scalar Scenario2.node[72].nic.mac1609_4 	DroppedPacketsInMac 	0
scalar Scenario2.node[72].nic.mac1609_4 	TooLittleTime 	0
scalar Scenario2.node[72].nic.mac1609_4 	TimesIntoBackoff 	32
scalar Scenario2.node[72].nic.mac1609_4 	SlotsBackoff 	49
scalar Scenario2.node[72].nic.mac1609_4 	NumInternalContention 	0
scalar Scenario2.node[72].nic.mac1609_4 	totalBusyTime 	0.240584
scalar Scenario2.node[72].veinsmobility 	startTime 	3
scalar Scenario2.node[72].veinsmobility 	totalTime 	31
scalar Scenario2.node[72].veinsmobility 	stopTime 	35
scalar Scenario2.node[72].veinsmobility 	minSpeed 	4.160416336859
scalar Scenario2.node[72].veinsmobility 	maxSpeed 	18.998247401568
scalar Scenario2.node[72].veinsmobility 	totalDistance 	514.99453362875
scalar Scenario2.node[72].veinsmobility 	totalCO2Emission 	118.9178712817
scalar Scenario2.node[19].appl 	generatedWSMs 	1
scalar Scenario2.node[19].appl 	receivedWSMs 	3
scalar Scenario2.node[19].appl 	generatedBSMs 	35
scalar Scenario2.node[19].appl 	receivedBSMs 	2637
scalar Scenario2.node[19].appl 	generatedWSAs 	0
scalar Scenario2.node[19].appl 	receivedWSAs 	0
scalar Scenario2.node[19].appl 	delayWSM 	0.005479304702
scalar Scenario2.node[19].appl 	Dist_Propa 	175.17363944956
scalar Scenario2.node[19].nic.phy80211p 	busyTime 	0.0080889142857141
scalar Scenario2.node[19].nic.phy80211p 	ncollisions 	21
scalar Scenario2.node[19].nic.mac1609_4 	ReceivedUnicastPackets 	0
scalar Scenario2.node[19].nic.mac1609_4 	ReceivedBroadcasts 	2640
scalar Scenario2.node[19].nic.mac1609_4 	SentPackets 	36
scalar Scenario2.node[19].nic.mac1609_4 	SNIRLostPackets 	49
scalar Scenario2.node[19].nic.mac1609_4 	RXTXLostPackets 	4
scalar Scenario2.node[19].nic.mac1609_4 	TotalLostPackets 	53
scalar Scenario2.node[19].nic.mac1609_4 	DroppedPacketsInMac 	0
scalar Scenario2.node[19].nic.mac1609_4 	TooLittleTime 	0
scalar Scenario2.node[19].nic.mac1609_4 	TimesIntoBackoff 	36
scalar Scenario2.node[19].nic.mac1609_4 	SlotsBackoff 	37
scalar Scenario2.node[19].nic.mac1609_4 	NumInternalContention 	0
scalar Scenario2.node[19].nic.mac1609_4 	totalBusyTime 	0.28129215163
scalar Scenario2.node[19].veinsmobility 	startTime 	1
scalar Scenario2.node[19].veinsmobility 	totalTime 	34
scalar Scenario2.node[19].veinsmobility 	stopTime 	36
scalar Scenario2.node[19].veinsmobility 	minSpeed 	2.7469869994252
scalar Scenario2.node[19].veinsmobility 	maxSpeed 	18.980967045685
scalar Scenario2.node[19].veinsmobility 	totalDistance 	552.79239116376
scalar Scenario2.node[19].veinsmobility 	totalCO2Emission 	125.79905284345
scalar Scenario2.node[81].appl 	generatedWSMs 	1
scalar Scenario2.node[81].appl 	receivedWSMs 	3
scalar Scenario2.node[81].appl 	generatedBSMs 	32
scalar Scenario2.node[81].appl 	receivedBSMs 	2514
scalar Scenario2.node[81].appl 	generatedWSAs 	0
scalar Scenario2.node[81].appl 	receivedWSAs 	0
scalar Scenario2.node[81].appl 	delayWSM 	0.005479285046
scalar Scenario2.node[81].appl 	Dist_Propa 	180.94757230618
scalar Scenario2.node[81].nic.phy80211p 	busyTime 	0.0084319999999998
scalar Scenario2.node[81].nic.phy80211p 	ncollisions 	17
scalar Scenario2.node[81].nic.mac1609_4 	ReceivedUnicastPackets 	0
scalar Scenario2.node[81].nic.mac1609_4 	ReceivedBroadcasts 	2517
scalar Scenario2.node[81].nic.mac1609_4 	SentPackets 	33
scalar Scenario2.node[81].nic.mac1609_4 	SNIRLostPackets 	43
scalar Scenario2.node[81].nic.mac1609_4 	RXTXLostPackets 	4
scalar Scenario2.node[81].nic.mac1609_4 	TotalLostPackets 	47
scalar Scenario2.node[81].nic.mac1609_4 	DroppedPacketsInMac 	0
scalar Scenario2.node[81].nic.mac1609_4 	TooLittleTime 	0
scalar Scenario2.node[81].nic.mac1609_4 	TimesIntoBackoff 	33
scalar Scenario2.node[81].nic.mac1609_4 	SlotsBackoff 	49
scalar Scenario2.node[81].nic.mac1609_4 	NumInternalContention 	0
scalar Scenario2.node[81].nic.mac1609_4 	totalBusyTime 	0.267769042018
scalar Scenario2.node[81].veinsmobility 	startTime 	4
scalar Scenario2.node[81].veinsmobility 	totalTime 	31
scalar Scenario2.node[81].veinsmobility 	stopTime 	36
scalar Scenario2.node[81].veinsmobility 	minSpeed 	2.9169091988617
scalar Scenario2.node[81].veinsmobility 	maxSpeed 	18.976269957249
scalar Scenario2.node[81].veinsmobility 	totalDistance 	505.13364217523
scalar Scenario2.node[81].veinsmobility 	totalCO2Emission 	119.23000791163
scalar Scenario2.node[33].appl 	generatedWSMs 	1
scalar Scenario2.node[33].appl 	receivedWSMs 	3
scalar Scenario2.node[33].appl 	generatedBSMs 	36
scalar Scenario2.node[33].appl 	receivedBSMs 	2882
scalar Scenario2.node[33].appl 	generatedWSAs 	0
scalar Scenario2.node[33].appl 	receivedWSAs 	0
scalar Scenario2.node[33].appl 	delayWSM 	0.00547922339
scalar Scenario2.node[33].appl 	Dist_Propa 	201.82193331226
scalar Scenario2.node[33].nic.phy80211p 	busyTime 	0.008594222222222
scalar Scenario2.node[33].nic.phy80211p 	ncollisions 	21
scalar Scenario2.node[33].nic.mac1609_4 	ReceivedUnicastPackets 	0
scalar Scenario2.node[33].nic.mac1609_4 	ReceivedBroadcasts 	2885
scalar Scenario2.node[33].nic.mac1609_4 	SentPackets 	37
scalar Scenario2.node[33].nic.mac1609_4 	SNIRLostPackets 	53
scalar Scenario2.node[33].nic.mac1609_4 	RXTXLostPackets 	4
scalar Scenario2.node[33].nic.mac1609_4 	TotalLostPackets 	57
scalar Scenario2.node[33].nic.mac1609_4 	DroppedPacketsInMac 	0
scalar Scenario2.node[33].nic.mac1609_4 	TooLittleTime 	0
scalar Scenario2.node[33].nic.mac1609_4 	TimesIntoBackoff 	37
scalar Scenario2.node[33].nic.mac1609_4 	SlotsBackoff 	55
scalar Scenario2.node[33].nic.mac1609_4 	NumInternalContention 	0
scalar Scenario2.node[33].nic.mac1609_4 	totalBusyTime 	0.30687719061
scalar Scenario2.node[33].veinsmobility 	startTime 	1
scalar Scenario2.node[33].veinsmobility 	totalTime 	35
scalar Scenario2.node[33].veinsmobility 	stopTime 	37
scalar Scenario2.node[33].veinsmobility 	minSpeed 	0.7030855698499
scalar Scenario2.node[33].veinsmobility 	maxSpeed 	18.994416443501
scalar Scenario2.node[33].veinsmobility 	totalDistance 	543.99849859273
scalar Scenario2.node[33].veinsmobility 	totalCO2Emission 	128.19238520245
scalar Scenario2.node[24].appl 	generatedWSMs 	1
scalar Scenario2.node[24].appl 	receivedWSMs 	3
scalar Scenario2.node[24].appl 	generatedBSMs 	36
scalar Scenario2.node[24].appl 	receivedBSMs 	2889
scalar Scenario2.node[24].appl 	generatedWSAs 	0
scalar Scenario2.node[24].appl 	receivedWSAs 	0
scalar Scenario2.node[24].appl 	delayWSM 	0.005479209619
scalar Scenario2.node[24].appl 	Dist_Propa 	203.20077901268
scalar Scenario2.node[24].nic.phy80211p 	busyTime 	0.0086115555555553
scalar Scenario2.node[24].nic.phy80211p 	ncollisions 	21
scalar Scenario2.node[24].nic.mac1609_4 	ReceivedUnicastPackets 	0
scalar Scenario2.node[24].nic.mac1609_4 	ReceivedBroadcasts 	2892
scalar Scenario2.node[24].nic.mac1609_4 	SentPackets 	37
scalar Scenario2.node[24].nic.mac1609_4 	SNIRLostPackets 	52
scalar Scenario2.node[24].nic.mac1609_4 	RXTXLostPackets 	4
scalar Scenario2.node[24].nic.mac1609_4 	TotalLostPackets 	56
scalar Scenario2.node[24].nic.mac1609_4 	DroppedPacketsInMac 	0
scalar Scenario2.node[24].nic.mac1609_4 	TooLittleTime 	0
scalar Scenario2.node[24].nic.mac1609_4 	TimesIntoBackoff 	37
scalar Scenario2.node[24].nic.mac1609_4 	SlotsBackoff 	65
scalar Scenario2.node[24].nic.mac1609_4 	NumInternalContention 	0
scalar Scenario2.node[24].nic.mac1609_4 	totalBusyTime 	0.307605299999
scalar Scenario2.node[24].veinsmobility 	startTime 	1
scalar Scenario2.node[24].veinsmobility 	totalTime 	35
scalar Scenario2.node[24].veinsmobility 	stopTime 	37
scalar Scenario2.node[24].veinsmobility 	minSpeed 	2.8351305318164
scalar Scenario2.node[24].veinsmobility 	maxSpeed 	18.986858689971
scalar Scenario2.node[24].veinsmobility 	totalDistance 	519.79892566372
scalar Scenario2.node[24].veinsmobility 	totalCO2Emission 	125.60350843403
scalar Scenario2.node[38].appl 	generatedWSMs 	1
scalar Scenario2.node[38].appl 	receivedWSMs 	3
scalar Scenario2.node[38].appl 	generatedBSMs 	37
scalar Scenario2.node[38].appl 	receivedBSMs 	3131
scalar Scenario2.node[38].appl 	generatedWSAs 	0
scalar Scenario2.node[38].appl 	receivedWSAs 	0
scalar Scenario2.node[38].appl 	delayWSM 	0.005479147879
scalar Scenario2.node[38].appl 	Dist_Propa 	224.19464222902
scalar Scenario2.node[38].nic.phy80211p 	busyTime 	0.0090235675675673
scalar Scenario2.node[38].nic.phy80211p 	ncollisions 	21
scalar Scenario2.node[38].nic.mac1609_4 	ReceivedUnicastPackets 	0
scalar Scenario2.node[38].nic.mac1609_4 	ReceivedBroadcasts 	3134
scalar Scenario2.node[38].nic.mac1609_4 	SentPackets 	38
scalar Scenario2.node[38].nic.mac1609_4 	SNIRLostPackets 	48
scalar Scenario2.node[38].nic.mac1609_4 	RXTXLostPackets 	16
scalar Scenario2.node[38].nic.mac1609_4 	TotalLostPackets 	64
scalar Scenario2.node[38].nic.mac1609_4 	DroppedPacketsInMac 	0
scalar Scenario2.node[38].nic.mac1609_4 	TooLittleTime 	0
scalar Scenario2.node[38].nic.mac1609_4 	TimesIntoBackoff 	38
scalar Scenario2.node[38].nic.mac1609_4 	SlotsBackoff 	57
scalar Scenario2.node[38].nic.mac1609_4 	NumInternalContention 	0
scalar Scenario2.node[38].nic.mac1609_4 	totalBusyTime 	0.333006288585
scalar Scenario2.node[38].veinsmobility 	startTime 	1
scalar Scenario2.node[38].veinsmobility 	totalTime 	36
scalar Scenario2.node[38].veinsmobility 	stopTime 	38
scalar Scenario2.node[38].veinsmobility 	minSpeed 	3.8436146157379
scalar Scenario2.node[38].veinsmobility 	maxSpeed 	18.956129539851
scalar Scenario2.node[38].veinsmobility 	totalDistance 	572.52570590264
scalar Scenario2.node[38].veinsmobility 	totalCO2Emission 	127.13910885386
scalar Scenario2.node[77].appl 	generatedWSMs 	0
scalar Scenario2.node[77].appl 	receivedWSMs 	0
scalar Scenario2.node[77].appl 	generatedBSMs 	35
scalar Scenario2.node[77].appl 	receivedBSMs 	2847
scalar Scenario2.node[77].appl 	generatedWSAs 	0
scalar Scenario2.node[77].appl 	receivedWSAs 	0
scalar Scenario2.node[77].appl 	delayWSM 	-1
scalar Scenario2.node[77].appl 	Dist_Propa 	-1
scalar Scenario2.node[77].nic.phy80211p 	busyTime 	0.0086283428571426
scalar Scenario2.node[77].nic.phy80211p 	ncollisions 	16
scalar Scenario2.node[77].nic.mac1609_4 	ReceivedUnicastPackets 	0
scalar Scenario2.node[77].nic.mac1609_4 	ReceivedBroadcasts 	2847
scalar Scenario2.node[77].nic.mac1609_4 	SentPackets 	35
scalar Scenario2.node[77].nic.mac1609_4 	SNIRLostPackets 	42
scalar Scenario2.node[77].nic.mac1609_4 	RXTXLostPackets 	0
scalar Scenario2.node[77].nic.mac1609_4 	TotalLostPackets 	42
scalar Scenario2.node[77].nic.mac1609_4 	DroppedPacketsInMac 	0
scalar Scenario2.node[77].nic.mac1609_4 	TooLittleTime 	0
scalar Scenario2.node[77].nic.mac1609_4 	TimesIntoBackoff 	35
scalar Scenario2.node[77].nic.mac1609_4 	SlotsBackoff 	54
scalar Scenario2.node[77].nic.mac1609_4 	NumInternalContention 	0
scalar Scenario2.node[77].nic.mac1609_4 	totalBusyTime 	0.301683
scalar Scenario2.node[77].veinsmobility 	startTime 	3
scalar Scenario2.node[77].veinsmobility 	totalTime 	34
scalar Scenario2.node[77].veinsmobility 	stopTime 	38
scalar Scenario2.node[77].veinsmobility 	minSpeed 	2.469303570089
scalar Scenario2.node[77].veinsmobility 	maxSpeed 	18.989598316788
scalar Scenario2.node[77].veinsmobility 	totalDistance 	534.6176752236
scalar Scenario2.node[77].veinsmobility 	totalCO2Emission 	125.29924590028
scalar Scenario2.node[78].appl 	generatedWSMs 	1
scalar Scenario2.node[78].appl 	receivedWSMs 	3
scalar Scenario2.node[78].appl 	generatedBSMs 	35
scalar Scenario2.node[78].appl 	receivedBSMs 	3016
scalar Scenario2.node[78].appl 	generatedWSAs 	0
scalar Scenario2.node[78].appl 	receivedWSAs 	0
scalar Scenario2.node[78].appl 	delayWSM 	0.0054791345
scalar Scenario2.node[78].appl 	Dist_Propa 	171.19410497628
scalar Scenario2.node[78].nic.phy80211p 	busyTime 	0.0091972571428569
scalar Scenario2.node[78].nic.phy80211p 	ncollisions 	18
scalar Scenario2.node[78].nic.mac1609_4 	ReceivedUnicastPackets 	0
scalar Scenario2.node[78].nic.mac1609_4 	ReceivedBroadcasts 	3019
scalar Scenario2.node[78].nic.mac1609_4 	SentPackets 	36
scalar Scenario2.node[78].nic.mac1609_4 	SNIRLostPackets 	43
scalar Scenario2.node[78].nic.mac1609_4 	RXTXLostPackets 	16
scalar Scenario2.node[78].nic.mac1609_4 	TotalLostPackets 	59
scalar Scenario2.node[78].nic.mac1609_4 	DroppedPacketsInMac 	0
scalar Scenario2.node[78].nic.mac1609_4 	TooLittleTime 	0
scalar Scenario2.node[78].nic.mac1609_4 	TimesIntoBackoff 	36
scalar Scenario2.node[78].nic.mac1609_4 	SlotsBackoff 	67
scalar Scenario2.node[78].nic.mac1609_4 	NumInternalContention 	0
scalar Scenario2.node[78].nic.mac1609_4 	totalBusyTime 	0.320524263403
scalar Scenario2.node[78].veinsmobility 	startTime 	3
scalar Scenario2.node[78].veinsmobility 	totalTime 	34
scalar Scenario2.node[78].veinsmobility 	stopTime 	38
scalar Scenario2.node[78].veinsmobility 	minSpeed 	1.6589710813337
scalar Scenario2.node[78].veinsmobility 	maxSpeed 	18.915644339598
scalar Scenario2.node[78].veinsmobility 	totalDistance 	513.35441316521
scalar Scenario2.node[78].veinsmobility 	totalCO2Emission 	122.34261446111
scalar Scenario2.node[23].appl 	generatedWSMs 	0
scalar Scenario2.node[23].appl 	receivedWSMs 	0
scalar Scenario2.node[23].appl 	generatedBSMs 	38
scalar Scenario2.node[23].appl 	receivedBSMs 	3157
scalar Scenario2.node[23].appl 	generatedWSAs 	0
scalar Scenario2.node[23].appl 	receivedWSAs 	0
scalar Scenario2.node[23].appl 	delayWSM 	-1
scalar Scenario2.node[23].appl 	Dist_Propa 	-1
scalar Scenario2.node[23].nic.phy80211p 	busyTime 	0.0089802105263155
scalar Scenario2.node[23].nic.phy80211p 	ncollisions 	18
scalar Scenario2.node[23].nic.mac1609_4 	ReceivedUnicastPackets 	0
scalar Scenario2.node[23].nic.mac1609_4 	ReceivedBroadcasts 	3157
scalar Scenario2.node[23].nic.mac1609_4 	SentPackets 	38
scalar Scenario2.node[23].nic.mac1609_4 	SNIRLostPackets 	75
scalar Scenario2.node[23].nic.mac1609_4 	RXTXLostPackets 	0
scalar Scenario2.node[23].nic.mac1609_4 	TotalLostPackets 	75
scalar Scenario2.node[23].nic.mac1609_4 	DroppedPacketsInMac 	0
scalar Scenario2.node[23].nic.mac1609_4 	TooLittleTime 	0
scalar Scenario2.node[23].nic.mac1609_4 	TimesIntoBackoff 	38
scalar Scenario2.node[23].nic.mac1609_4 	SlotsBackoff 	67
scalar Scenario2.node[23].nic.mac1609_4 	NumInternalContention 	0
scalar Scenario2.node[23].nic.mac1609_4 	totalBusyTime 	0.334446
scalar Scenario2.node[23].veinsmobility 	startTime 	1
scalar Scenario2.node[23].veinsmobility 	totalTime 	37
scalar Scenario2.node[23].veinsmobility 	stopTime 	39
scalar Scenario2.node[23].veinsmobility 	minSpeed 	3.9197721995389
scalar Scenario2.node[23].veinsmobility 	maxSpeed 	18.958762100481
scalar Scenario2.node[23].veinsmobility 	totalDistance 	551.2990211723
scalar Scenario2.node[23].veinsmobility 	totalCO2Emission 	129.27981560609
scalar Scenario2.node[99].appl 	generatedWSMs 	1
scalar Scenario2.node[99].appl 	receivedWSMs 	3
scalar Scenario2.node[99].appl 	generatedBSMs 	32
scalar Scenario2.node[99].appl 	receivedBSMs 	2945
scalar Scenario2.node[99].appl 	generatedWSAs 	0
scalar Scenario2.node[99].appl 	receivedWSAs 	0
scalar Scenario2.node[99].appl 	delayWSM 	0.005479059071
scalar Scenario2.node[99].appl 	Dist_Propa 	193.74691061991
scalar Scenario2.node[99].nic.phy80211p 	busyTime 	0.0099762499999998
scalar Scenario2.node[99].nic.phy80211p 	ncollisions 	14
scalar Scenario2.node[99].nic.mac1609_4 	ReceivedUnicastPackets 	0
scalar Scenario2.node[99].nic.mac1609_4 	ReceivedBroadcasts 	2948
scalar Scenario2.node[99].nic.mac1609_4 	SentPackets 	33
scalar Scenario2.node[99].nic.mac1609_4 	SNIRLostPackets 	65
scalar Scenario2.node[99].nic.mac1609_4 	RXTXLostPackets 	16
scalar Scenario2.node[99].nic.mac1609_4 	TotalLostPackets 	81
scalar Scenario2.node[99].nic.mac1609_4 	DroppedPacketsInMac 	0
scalar Scenario2.node[99].nic.mac1609_4 	TooLittleTime 	0
scalar Scenario2.node[99].nic.mac1609_4 	TimesIntoBackoff 	33
scalar Scenario2.node[99].nic.mac1609_4 	SlotsBackoff 	47
scalar Scenario2.node[99].nic.mac1609_4 	NumInternalContention 	0
scalar Scenario2.node[99].nic.mac1609_4 	totalBusyTime 	0.312409262118
scalar Scenario2.node[99].veinsmobility 	startTime 	7
scalar Scenario2.node[99].veinsmobility 	totalTime 	31
scalar Scenario2.node[99].veinsmobility 	stopTime 	39
scalar Scenario2.node[99].veinsmobility 	minSpeed 	3.4495017279335
scalar Scenario2.node[99].veinsmobility 	maxSpeed 	18.97233216234
scalar Scenario2.node[99].veinsmobility 	totalDistance 	505.89978518668
scalar Scenario2.node[99].veinsmobility 	totalCO2Emission 	118.34030555927
scalar Scenario2.node[43].appl 	generatedWSMs 	1
scalar Scenario2.node[43].appl 	receivedWSMs 	3
scalar Scenario2.node[43].appl 	generatedBSMs 	39
scalar Scenario2.node[43].appl 	receivedBSMs 	3508
scalar Scenario2.node[43].appl 	generatedWSAs 	0
scalar Scenario2.node[43].appl 	receivedWSAs 	0
scalar Scenario2.node[43].appl 	delayWSM 	0.005479003262
scalar Scenario2.node[43].appl 	Dist_Propa 	173.84818103413
scalar Scenario2.node[43].nic.phy80211p 	busyTime 	0.0097784615384612
scalar Scenario2.node[43].nic.phy80211p 	ncollisions 	19
scalar Scenario2.node[43].nic.mac1609_4 	ReceivedUnicastPackets 	0
scalar Scenario2.node[43].nic.mac1609_4 	ReceivedBroadcasts 	3511
scalar Scenario2.node[43].nic.mac1609_4 	SentPackets 	40
scalar Scenario2.node[43].nic.mac1609_4 	SNIRLostPackets 	87
scalar Scenario2.node[43].nic.mac1609_4 	RXTXLostPackets 	16
scalar Scenario2.node[43].nic.mac1609_4 	TotalLostPackets 	103
scalar Scenario2.node[43].nic.mac1609_4 	DroppedPacketsInMac 	0
scalar Scenario2.node[43].nic.mac1609_4 	TooLittleTime 	0
scalar Scenario2.node[43].nic.mac1609_4 	TimesIntoBackoff 	40
scalar Scenario2.node[43].nic.mac1609_4 	SlotsBackoff 	50
scalar Scenario2.node[43].nic.mac1609_4 	NumInternalContention 	0
scalar Scenario2.node[43].nic.mac1609_4 	totalBusyTime 	0.372216297523
scalar Scenario2.node[43].veinsmobility 	startTime 	1
scalar Scenario2.node[43].veinsmobility 	totalTime 	38
scalar Scenario2.node[43].veinsmobility 	stopTime 	40
scalar Scenario2.node[43].veinsmobility 	minSpeed 	0.93985029414634
scalar Scenario2.node[43].veinsmobility 	maxSpeed 	18.998235099297
scalar Scenario2.node[43].veinsmobility 	totalDistance 	533.08445200913
scalar Scenario2.node[43].veinsmobility 	totalCO2Emission 	131.64580719256
scalar Scenario2.node[97].appl 	generatedWSMs 	1
scalar Scenario2.node[97].appl 	receivedWSMs 	6
scalar Scenario2.node[97].appl 	generatedBSMs 	34
scalar Scenario2.node[97].appl 	receivedBSMs 	3448
scalar Scenario2.node[97].appl 	generatedWSAs 	0
scalar Scenario2.node[97].appl 	receivedWSAs 	0
scalar Scenario2.node[97].appl 	delayWSM 	0.005770531012
scalar Scenario2.node[97].appl 	Dist_Propa 	258.8164808275
scalar Scenario2.node[97].nic.phy80211p 	busyTime 	0.011097882352941
scalar Scenario2.node[97].nic.phy80211p 	ncollisions 	14
scalar Scenario2.node[97].nic.mac1609_4 	ReceivedUnicastPackets 	0
scalar Scenario2.node[97].nic.mac1609_4 	ReceivedBroadcasts 	3454
scalar Scenario2.node[97].nic.mac1609_4 	SentPackets 	35
scalar Scenario2.node[97].nic.mac1609_4 	SNIRLostPackets 	88
scalar Scenario2.node[97].nic.mac1609_4 	RXTXLostPackets 	6
scalar Scenario2.node[97].nic.mac1609_4 	TotalLostPackets 	94
scalar Scenario2.node[97].nic.mac1609_4 	DroppedPacketsInMac 	0
scalar Scenario2.node[97].nic.mac1609_4 	TooLittleTime 	0
scalar Scenario2.node[97].nic.mac1609_4 	TimesIntoBackoff 	35
scalar Scenario2.node[97].nic.mac1609_4 	SlotsBackoff 	67
scalar Scenario2.node[97].nic.mac1609_4 	NumInternalContention 	0
scalar Scenario2.node[97].nic.mac1609_4 	totalBusyTime 	0.365627077034
scalar Scenario2.node[97].veinsmobility 	startTime 	6
scalar Scenario2.node[97].veinsmobility 	totalTime 	33
scalar Scenario2.node[97].veinsmobility 	stopTime 	40
scalar Scenario2.node[97].veinsmobility 	minSpeed 	2.0811592944059
scalar Scenario2.node[97].veinsmobility 	maxSpeed 	18.985642932095
scalar Scenario2.node[97].veinsmobility 	totalDistance 	537.06051774556
scalar Scenario2.node[97].veinsmobility 	totalCO2Emission 	124.01651426989
scalar Scenario2.node[87].appl 	generatedWSMs 	1
scalar Scenario2.node[87].appl 	receivedWSMs 	3
scalar Scenario2.node[87].appl 	generatedBSMs 	36
scalar Scenario2.node[87].appl 	receivedBSMs 	3382
scalar Scenario2.node[87].appl 	generatedWSAs 	0
scalar Scenario2.node[87].appl 	receivedWSAs 	0
scalar Scenario2.node[87].appl 	delayWSM 	0.005478977064
scalar Scenario2.node[87].appl 	Dist_Propa 	182.48107539808
scalar Scenario2.node[87].nic.phy80211p 	busyTime 	0.010222666666666
scalar Scenario2.node[87].nic.phy80211p 	ncollisions 	14
scalar Scenario2.node[87].nic.mac1609_4 	ReceivedUnicastPackets 	0
scalar Scenario2.node[87].nic.mac1609_4 	ReceivedBroadcasts 	3385
scalar Scenario2.node[87].nic.mac1609_4 	SentPackets 	37
scalar Scenario2.node[87].nic.mac1609_4 	SNIRLostPackets 	81
scalar Scenario2.node[87].nic.mac1609_4 	RXTXLostPackets 	16
scalar Scenario2.node[87].nic.mac1609_4 	TotalLostPackets 	97
scalar Scenario2.node[87].nic.mac1609_4 	DroppedPacketsInMac 	0
scalar Scenario2.node[87].nic.mac1609_4 	TooLittleTime 	0
scalar Scenario2.node[87].nic.mac1609_4 	TimesIntoBackoff 	37
scalar Scenario2.node[87].nic.mac1609_4 	SlotsBackoff 	56
scalar Scenario2.node[87].nic.mac1609_4 	NumInternalContention 	0
scalar Scenario2.node[87].nic.mac1609_4 	totalBusyTime 	0.358277246086
scalar Scenario2.node[87].veinsmobility 	startTime 	5
scalar Scenario2.node[87].veinsmobility 	totalTime 	35
scalar Scenario2.node[87].veinsmobility 	stopTime 	41
scalar Scenario2.node[87].veinsmobility 	minSpeed 	1.5977305046032
scalar Scenario2.node[87].veinsmobility 	maxSpeed 	18.996921987447
scalar Scenario2.node[87].veinsmobility 	totalDistance 	533.65184389026
scalar Scenario2.node[87].veinsmobility 	totalCO2Emission 	127.08622532585
scalar Scenario2.node[65].appl 	generatedWSMs 	1
scalar Scenario2.node[65].appl 	receivedWSMs 	3
scalar Scenario2.node[65].appl 	generatedBSMs 	39
scalar Scenario2.node[65].appl 	receivedBSMs 	3693
scalar Scenario2.node[65].appl 	generatedWSAs 	0
scalar Scenario2.node[65].appl 	receivedWSAs 	0
scalar Scenario2.node[65].appl 	delayWSM 	0.005478928448
scalar Scenario2.node[65].appl 	Dist_Propa 	192.17659429883
scalar Scenario2.node[65].nic.phy80211p 	busyTime 	0.01032923076923
scalar Scenario2.node[65].nic.phy80211p 	ncollisions 	16
scalar Scenario2.node[65].nic.mac1609_4 	ReceivedUnicastPackets 	0
scalar Scenario2.node[65].nic.mac1609_4 	ReceivedBroadcasts 	3696
scalar Scenario2.node[65].nic.mac1609_4 	SentPackets 	40
scalar Scenario2.node[65].nic.mac1609_4 	SNIRLostPackets 	95
scalar Scenario2.node[65].nic.mac1609_4 	RXTXLostPackets 	16
scalar Scenario2.node[65].nic.mac1609_4 	TotalLostPackets 	111
scalar Scenario2.node[65].nic.mac1609_4 	DroppedPacketsInMac 	0
scalar Scenario2.node[65].nic.mac1609_4 	TooLittleTime 	0
scalar Scenario2.node[65].nic.mac1609_4 	TimesIntoBackoff 	40
scalar Scenario2.node[65].nic.mac1609_4 	SlotsBackoff 	72
scalar Scenario2.node[65].nic.mac1609_4 	NumInternalContention 	0
scalar Scenario2.node[65].nic.mac1609_4 	totalBusyTime 	0.391144201412
scalar Scenario2.node[65].veinsmobility 	startTime 	2
scalar Scenario2.node[65].veinsmobility 	totalTime 	38
scalar Scenario2.node[65].veinsmobility 	stopTime 	41
scalar Scenario2.node[65].veinsmobility 	minSpeed 	2.7004654792201
scalar Scenario2.node[65].veinsmobility 	maxSpeed 	18.952788990605
scalar Scenario2.node[65].veinsmobility 	totalDistance 	542.46622928497
scalar Scenario2.node[65].veinsmobility 	totalCO2Emission 	129.04066945565
scalar Scenario2.node[86].appl 	generatedWSMs 	1
scalar Scenario2.node[86].appl 	receivedWSMs 	6
scalar Scenario2.node[86].appl 	generatedBSMs 	36
scalar Scenario2.node[86].appl 	receivedBSMs 	3736
scalar Scenario2.node[86].appl 	generatedWSAs 	0
scalar Scenario2.node[86].appl 	receivedWSAs 	0
scalar Scenario2.node[86].appl 	delayWSM 	0.005770457598
scalar Scenario2.node[86].appl 	Dist_Propa 	278.85936323516
scalar Scenario2.node[86].nic.phy80211p 	busyTime 	0.011392888888889
scalar Scenario2.node[86].nic.phy80211p 	ncollisions 	16
scalar Scenario2.node[86].nic.mac1609_4 	ReceivedUnicastPackets 	0
scalar Scenario2.node[86].nic.mac1609_4 	ReceivedBroadcasts 	3742
scalar Scenario2.node[86].nic.mac1609_4 	SentPackets 	37
scalar Scenario2.node[86].nic.mac1609_4 	SNIRLostPackets 	102
scalar Scenario2.node[86].nic.mac1609_4 	RXTXLostPackets 	6
scalar Scenario2.node[86].nic.mac1609_4 	TotalLostPackets 	108
scalar Scenario2.node[86].nic.mac1609_4 	DroppedPacketsInMac 	0
scalar Scenario2.node[86].nic.mac1609_4 	TooLittleTime 	0
scalar Scenario2.node[86].nic.mac1609_4 	TimesIntoBackoff 	37
scalar Scenario2.node[86].nic.mac1609_4 	SlotsBackoff 	45
scalar Scenario2.node[86].nic.mac1609_4 	NumInternalContention 	0
scalar Scenario2.node[86].nic.mac1609_4 	totalBusyTime 	0.395997149657
scalar Scenario2.node[86].veinsmobility 	startTime 	5
scalar Scenario2.node[86].veinsmobility 	totalTime 	35
scalar Scenario2.node[86].veinsmobility 	stopTime 	41
scalar Scenario2.node[86].veinsmobility 	minSpeed 	2.8531540664863
scalar Scenario2.node[86].veinsmobility 	maxSpeed 	18.998548358157
scalar Scenario2.node[86].veinsmobility 	totalDistance 	576.58382063838
scalar Scenario2.node[86].veinsmobility 	totalCO2Emission 	128.79870530879
scalar Scenario2.node[69].appl 	generatedWSMs 	1
scalar Scenario2.node[69].appl 	receivedWSMs 	3
scalar Scenario2.node[69].appl 	generatedBSMs 	40
scalar Scenario2.node[69].appl 	receivedBSMs 	3790
scalar Scenario2.node[69].appl 	generatedWSAs 	0
scalar Scenario2.node[69].appl 	receivedWSAs 	0
scalar Scenario2.node[69].appl 	delayWSM 	0.005478902356
scalar Scenario2.node[69].appl 	Dist_Propa 	202.28892680399
scalar Scenario2.node[69].nic.phy80211p 	busyTime 	0.0103522
scalar Scenario2.node[69].nic.phy80211p 	ncollisions 	16
scalar Scenario2.node[69].nic.mac1609_4 	ReceivedUnicastPackets 	0
scalar Scenario2.node[69].nic.mac1609_4 	ReceivedBroadcasts 	3793
scalar Scenario2.node[69].nic.mac1609_4 	SentPackets 	41
scalar Scenario2.node[69].nic.mac1609_4 	SNIRLostPackets 	100
scalar Scenario2.node[69].nic.mac1609_4 	RXTXLostPackets 	16
scalar Scenario2.node[69].nic.mac1609_4 	TotalLostPackets 	116
scalar Scenario2.node[69].nic.mac1609_4 	DroppedPacketsInMac 	0
scalar Scenario2.node[69].nic.mac1609_4 	TooLittleTime 	0
scalar Scenario2.node[69].nic.mac1609_4 	TimesIntoBackoff 	41
scalar Scenario2.node[69].nic.mac1609_4 	SlotsBackoff 	70
scalar Scenario2.node[69].nic.mac1609_4 	NumInternalContention 	0
scalar Scenario2.node[69].nic.mac1609_4 	totalBusyTime 	0.40133724287
scalar Scenario2.node[69].veinsmobility 	startTime 	2
scalar Scenario2.node[69].veinsmobility 	totalTime 	39
scalar Scenario2.node[69].veinsmobility 	stopTime 	42
scalar Scenario2.node[69].veinsmobility 	minSpeed 	1.8372399861668
scalar Scenario2.node[69].veinsmobility 	maxSpeed 	18.994541057395
scalar Scenario2.node[69].veinsmobility 	totalDistance 	557.44137128233
scalar Scenario2.node[69].veinsmobility 	totalCO2Emission 	133.33762905362
scalar Scenario2.node[2].appl 	generatedWSMs 	1
scalar Scenario2.node[2].appl 	receivedWSMs 	3
scalar Scenario2.node[2].appl 	generatedBSMs 	42
scalar Scenario2.node[2].appl 	receivedBSMs 	3984
scalar Scenario2.node[2].appl 	generatedWSAs 	0
scalar Scenario2.node[2].appl 	receivedWSAs 	0
scalar Scenario2.node[2].appl 	delayWSM 	0.005478854462
scalar Scenario2.node[2].appl 	Dist_Propa 	213.04036821833
scalar Scenario2.node[2].nic.phy80211p 	busyTime 	0.010388761904762
scalar Scenario2.node[2].nic.phy80211p 	ncollisions 	17
scalar Scenario2.node[2].nic.mac1609_4 	ReceivedUnicastPackets 	0
scalar Scenario2.node[2].nic.mac1609_4 	ReceivedBroadcasts 	3987
scalar Scenario2.node[2].nic.mac1609_4 	SentPackets 	43
scalar Scenario2.node[2].nic.mac1609_4 	SNIRLostPackets 	110
scalar Scenario2.node[2].nic.mac1609_4 	RXTXLostPackets 	16
scalar Scenario2.node[2].nic.mac1609_4 	TotalLostPackets 	126
scalar Scenario2.node[2].nic.mac1609_4 	DroppedPacketsInMac 	0
scalar Scenario2.node[2].nic.mac1609_4 	TooLittleTime 	0
scalar Scenario2.node[2].nic.mac1609_4 	TimesIntoBackoff 	43
scalar Scenario2.node[2].nic.mac1609_4 	SlotsBackoff 	59
scalar Scenario2.node[2].nic.mac1609_4 	NumInternalContention 	0
scalar Scenario2.node[2].nic.mac1609_4 	totalBusyTime 	0.421827207093
scalar Scenario2.node[2].veinsmobility 	startTime 	1
scalar Scenario2.node[2].veinsmobility 	totalTime 	41
scalar Scenario2.node[2].veinsmobility 	stopTime 	43
scalar Scenario2.node[2].veinsmobility 	minSpeed 	3.897912896338
scalar Scenario2.node[2].veinsmobility 	maxSpeed 	18.952529372755
scalar Scenario2.node[2].veinsmobility 	totalDistance 	587.77899406994
scalar Scenario2.node[2].veinsmobility 	totalCO2Emission 	134.19222120583
scalar Scenario2.node[100].appl 	generatedWSMs 	1
scalar Scenario2.node[100].appl 	receivedWSMs 	3
scalar Scenario2.node[100].appl 	generatedBSMs 	36
scalar Scenario2.node[100].appl 	receivedBSMs 	3643
scalar Scenario2.node[100].appl 	generatedWSAs 	0
scalar Scenario2.node[100].appl 	receivedWSAs 	0
scalar Scenario2.node[100].appl 	delayWSM 	0.005478827838
scalar Scenario2.node[100].appl 	Dist_Propa 	221.6383881477
scalar Scenario2.node[100].nic.phy80211p 	busyTime 	0.011114
scalar Scenario2.node[100].nic.phy80211p 	ncollisions 	10
scalar Scenario2.node[100].nic.mac1609_4 	ReceivedUnicastPackets 	0
scalar Scenario2.node[100].nic.mac1609_4 	ReceivedBroadcasts 	3646
scalar Scenario2.node[100].nic.mac1609_4 	SentPackets 	37
scalar Scenario2.node[100].nic.mac1609_4 	SNIRLostPackets 	99
scalar Scenario2.node[100].nic.mac1609_4 	RXTXLostPackets 	16
scalar Scenario2.node[100].nic.mac1609_4 	TotalLostPackets 	115
scalar Scenario2.node[100].nic.mac1609_4 	DroppedPacketsInMac 	0
scalar Scenario2.node[100].nic.mac1609_4 	TooLittleTime 	0
scalar Scenario2.node[100].nic.mac1609_4 	TimesIntoBackoff 	37
scalar Scenario2.node[100].nic.mac1609_4 	SlotsBackoff 	54
scalar Scenario2.node[100].nic.mac1609_4 	NumInternalContention 	0
scalar Scenario2.node[100].nic.mac1609_4 	totalBusyTime 	0.38500515365
scalar Scenario2.node[100].veinsmobility 	startTime 	7
scalar Scenario2.node[100].veinsmobility 	totalTime 	35
scalar Scenario2.node[100].veinsmobility 	stopTime 	43
scalar Scenario2.node[100].veinsmobility 	minSpeed 	3.7401869103686
scalar Scenario2.node[100].veinsmobility 	maxSpeed 	18.953406393947
scalar Scenario2.node[100].veinsmobility 	totalDistance 	554.61934619149
scalar Scenario2.node[100].veinsmobility 	totalCO2Emission 	124.93218523496
scalar Scenario2.node[75].appl 	generatedWSMs 	1
scalar Scenario2.node[75].appl 	receivedWSMs 	4
scalar Scenario2.node[75].appl 	generatedBSMs 	41
scalar Scenario2.node[75].appl 	receivedBSMs 	4083
scalar Scenario2.node[75].appl 	generatedWSAs 	0
scalar Scenario2.node[75].appl 	receivedWSAs 	0
scalar Scenario2.node[75].appl 	delayWSM 	0.005478781367
scalar Scenario2.node[75].appl 	Dist_Propa 	232.9607853516
scalar Scenario2.node[75].nic.phy80211p 	busyTime 	0.010940292682926
scalar Scenario2.node[75].nic.phy80211p 	ncollisions 	14
scalar Scenario2.node[75].nic.mac1609_4 	ReceivedUnicastPackets 	0
scalar Scenario2.node[75].nic.mac1609_4 	ReceivedBroadcasts 	4087
scalar Scenario2.node[75].nic.mac1609_4 	SentPackets 	42
scalar Scenario2.node[75].nic.mac1609_4 	SNIRLostPackets 	114
scalar Scenario2.node[75].nic.mac1609_4 	RXTXLostPackets 	16
scalar Scenario2.node[75].nic.mac1609_4 	TotalLostPackets 	130
scalar Scenario2.node[75].nic.mac1609_4 	DroppedPacketsInMac 	0
scalar Scenario2.node[75].nic.mac1609_4 	TooLittleTime 	0
scalar Scenario2.node[75].nic.mac1609_4 	TimesIntoBackoff 	42
scalar Scenario2.node[75].nic.mac1609_4 	SlotsBackoff 	75
scalar Scenario2.node[75].nic.mac1609_4 	NumInternalContention 	0
scalar Scenario2.node[75].nic.mac1609_4 	totalBusyTime 	0.432066144868
scalar Scenario2.node[75].veinsmobility 	startTime 	3
scalar Scenario2.node[75].veinsmobility 	totalTime 	40
scalar Scenario2.node[75].veinsmobility 	stopTime 	44
scalar Scenario2.node[75].veinsmobility 	minSpeed 	3.7663311277212
scalar Scenario2.node[75].veinsmobility 	maxSpeed 	18.953042766952
scalar Scenario2.node[75].veinsmobility 	totalDistance 	592.6119070957
scalar Scenario2.node[75].veinsmobility 	totalCO2Emission 	136.32523109303
scalar Scenario2.node[102].appl 	generatedWSMs 	1
scalar Scenario2.node[102].appl 	receivedWSMs 	4
scalar Scenario2.node[102].appl 	generatedBSMs 	37
scalar Scenario2.node[102].appl 	receivedBSMs 	3876
scalar Scenario2.node[102].appl 	generatedWSAs 	0
scalar Scenario2.node[102].appl 	receivedWSAs 	0
scalar Scenario2.node[102].appl 	delayWSM 	0.005478751013
scalar Scenario2.node[102].appl 	Dist_Propa 	247.75805317332
scalar Scenario2.node[102].nic.phy80211p 	busyTime 	0.011529081081081
scalar Scenario2.node[102].nic.phy80211p 	ncollisions 	8
scalar Scenario2.node[102].nic.mac1609_4 	ReceivedUnicastPackets 	0
scalar Scenario2.node[102].nic.mac1609_4 	ReceivedBroadcasts 	3880
scalar Scenario2.node[102].nic.mac1609_4 	SentPackets 	38
scalar Scenario2.node[102].nic.mac1609_4 	SNIRLostPackets 	106
scalar Scenario2.node[102].nic.mac1609_4 	RXTXLostPackets 	16
scalar Scenario2.node[102].nic.mac1609_4 	TotalLostPackets 	122
scalar Scenario2.node[102].nic.mac1609_4 	DroppedPacketsInMac 	0
scalar Scenario2.node[102].nic.mac1609_4 	TooLittleTime 	0
scalar Scenario2.node[102].nic.mac1609_4 	TimesIntoBackoff 	38
scalar Scenario2.node[102].nic.mac1609_4 	SlotsBackoff 	64
scalar Scenario2.node[102].nic.mac1609_4 	NumInternalContention 	0
scalar Scenario2.node[102].nic.mac1609_4 	totalBusyTime 	0.409494228105
scalar Scenario2.node[102].veinsmobility 	startTime 	7
scalar Scenario2.node[102].veinsmobility 	totalTime 	36
scalar Scenario2.node[102].veinsmobility 	stopTime 	44
scalar Scenario2.node[102].veinsmobility 	minSpeed 	2.9899711694765
scalar Scenario2.node[102].veinsmobility 	maxSpeed 	18.986820058792
scalar Scenario2.node[102].veinsmobility 	totalDistance 	561.05710037719
scalar Scenario2.node[102].veinsmobility 	totalCO2Emission 	128.11329495202
scalar Scenario2.node[10].appl 	generatedWSMs 	1
scalar Scenario2.node[10].appl 	receivedWSMs 	4
scalar Scenario2.node[10].appl 	generatedBSMs 	44
scalar Scenario2.node[10].appl 	receivedBSMs 	4408
scalar Scenario2.node[10].appl 	generatedWSAs 	0
scalar Scenario2.node[10].appl 	receivedWSAs 	0
scalar Scenario2.node[10].appl 	delayWSM 	0.005478708946
scalar Scenario2.node[10].appl 	Dist_Propa 	246.3158625547
scalar Scenario2.node[10].nic.phy80211p 	busyTime 	0.011038181818181
scalar Scenario2.node[10].nic.phy80211p 	ncollisions 	15
scalar Scenario2.node[10].nic.mac1609_4 	ReceivedUnicastPackets 	0
scalar Scenario2.node[10].nic.mac1609_4 	ReceivedBroadcasts 	4412
scalar Scenario2.node[10].nic.mac1609_4 	SentPackets 	45
scalar Scenario2.node[10].nic.mac1609_4 	SNIRLostPackets 	130
scalar Scenario2.node[10].nic.mac1609_4 	RXTXLostPackets 	16
scalar Scenario2.node[10].nic.mac1609_4 	TotalLostPackets 	146
scalar Scenario2.node[10].nic.mac1609_4 	DroppedPacketsInMac 	0
scalar Scenario2.node[10].nic.mac1609_4 	TooLittleTime 	0
scalar Scenario2.node[10].nic.mac1609_4 	TimesIntoBackoff 	45
scalar Scenario2.node[10].nic.mac1609_4 	SlotsBackoff 	65
scalar Scenario2.node[10].nic.mac1609_4 	NumInternalContention 	0
scalar Scenario2.node[10].nic.mac1609_4 	totalBusyTime 	0.466285143021
scalar Scenario2.node[10].veinsmobility 	startTime 	1
scalar Scenario2.node[10].veinsmobility 	totalTime 	43
scalar Scenario2.node[10].veinsmobility 	stopTime 	45
scalar Scenario2.node[10].veinsmobility 	minSpeed 	3.6504235994233
scalar Scenario2.node[10].veinsmobility 	maxSpeed 	18.96345657906
scalar Scenario2.node[10].veinsmobility 	totalDistance 	629.30644292796
scalar Scenario2.node[10].veinsmobility 	totalCO2Emission 	142.41398201351
scalar Scenario2.node[12].appl 	generatedWSMs 	1
scalar Scenario2.node[12].appl 	receivedWSMs 	4
scalar Scenario2.node[12].appl 	generatedBSMs 	45
scalar Scenario2.node[12].appl 	receivedBSMs 	4645
scalar Scenario2.node[12].appl 	generatedWSAs 	0
scalar Scenario2.node[12].appl 	receivedWSAs 	0
scalar Scenario2.node[12].appl 	delayWSM 	0.00547863746
scalar Scenario2.node[12].appl 	Dist_Propa 	260.32782184137
scalar Scenario2.node[12].nic.phy80211p 	busyTime 	0.0113824
scalar Scenario2.node[12].nic.phy80211p 	ncollisions 	13
scalar Scenario2.node[12].nic.mac1609_4 	ReceivedUnicastPackets 	0
scalar Scenario2.node[12].nic.mac1609_4 	ReceivedBroadcasts 	4649
scalar Scenario2.node[12].nic.mac1609_4 	SentPackets 	46
scalar Scenario2.node[12].nic.mac1609_4 	SNIRLostPackets 	137
scalar Scenario2.node[12].nic.mac1609_4 	RXTXLostPackets 	16
scalar Scenario2.node[12].nic.mac1609_4 	TotalLostPackets 	153
scalar Scenario2.node[12].nic.mac1609_4 	DroppedPacketsInMac 	0
scalar Scenario2.node[12].nic.mac1609_4 	TooLittleTime 	0
scalar Scenario2.node[12].nic.mac1609_4 	TimesIntoBackoff 	46
scalar Scenario2.node[12].nic.mac1609_4 	SlotsBackoff 	69
scalar Scenario2.node[12].nic.mac1609_4 	NumInternalContention 	0
scalar Scenario2.node[12].nic.mac1609_4 	totalBusyTime 	0.490830164162
scalar Scenario2.node[12].veinsmobility 	startTime 	1
scalar Scenario2.node[12].veinsmobility 	totalTime 	44
scalar Scenario2.node[12].veinsmobility 	stopTime 	46
scalar Scenario2.node[12].veinsmobility 	minSpeed 	3.8852701568365
scalar Scenario2.node[12].veinsmobility 	maxSpeed 	18.996202773422
scalar Scenario2.node[12].veinsmobility 	totalDistance 	635.78531932981
scalar Scenario2.node[12].veinsmobility 	totalCO2Emission 	140.16590807303
scalar Scenario2.node[132].appl 	generatedWSMs 	1
scalar Scenario2.node[132].appl 	receivedWSMs 	4
scalar Scenario2.node[132].appl 	generatedBSMs 	34
scalar Scenario2.node[132].appl 	receivedBSMs 	3852
scalar Scenario2.node[132].appl 	generatedWSAs 	0
scalar Scenario2.node[132].appl 	receivedWSAs 	0
scalar Scenario2.node[132].appl 	delayWSM 	0.005478555514
scalar Scenario2.node[132].appl 	Dist_Propa 	309.27530461288
scalar Scenario2.node[132].nic.phy80211p 	busyTime 	0.012644235294117
scalar Scenario2.node[132].nic.phy80211p 	ncollisions 	8
scalar Scenario2.node[132].nic.mac1609_4 	ReceivedUnicastPackets 	0
scalar Scenario2.node[132].nic.mac1609_4 	ReceivedBroadcasts 	3856
scalar Scenario2.node[132].nic.mac1609_4 	SentPackets 	35
scalar Scenario2.node[132].nic.mac1609_4 	SNIRLostPackets 	130
scalar Scenario2.node[132].nic.mac1609_4 	RXTXLostPackets 	16
scalar Scenario2.node[132].nic.mac1609_4 	TotalLostPackets 	146
scalar Scenario2.node[132].nic.mac1609_4 	DroppedPacketsInMac 	0
scalar Scenario2.node[132].nic.mac1609_4 	TooLittleTime 	0
scalar Scenario2.node[132].nic.mac1609_4 	TimesIntoBackoff 	35
scalar Scenario2.node[132].nic.mac1609_4 	SlotsBackoff 	53
scalar Scenario2.node[132].nic.mac1609_4 	NumInternalContention 	0
scalar Scenario2.node[132].nic.mac1609_4 	totalBusyTime 	0.406683146359
scalar Scenario2.node[132].veinsmobility 	startTime 	13
scalar Scenario2.node[132].veinsmobility 	totalTime 	33
scalar Scenario2.node[132].veinsmobility 	stopTime 	47
scalar Scenario2.node[132].veinsmobility 	minSpeed 	1.0325582238956
scalar Scenario2.node[132].veinsmobility 	maxSpeed 	18.997862700217
scalar Scenario2.node[132].veinsmobility 	totalDistance 	503.42720242976
scalar Scenario2.node[132].veinsmobility 	totalCO2Emission 	123.10429419579
scalar Scenario2.node[127].appl 	generatedWSMs 	1
scalar Scenario2.node[127].appl 	receivedWSMs 	4
scalar Scenario2.node[127].appl 	generatedBSMs 	35
scalar Scenario2.node[127].appl 	receivedBSMs 	3985
scalar Scenario2.node[127].appl 	generatedWSAs 	0
scalar Scenario2.node[127].appl 	receivedWSAs 	0
scalar Scenario2.node[127].appl 	delayWSM 	0.005478558413
scalar Scenario2.node[127].appl 	Dist_Propa 	297.09123146378
scalar Scenario2.node[127].nic.phy80211p 	busyTime 	0.0126752
scalar Scenario2.node[127].nic.phy80211p 	ncollisions 	7
scalar Scenario2.node[127].nic.mac1609_4 	ReceivedUnicastPackets 	0
scalar Scenario2.node[127].nic.mac1609_4 	ReceivedBroadcasts 	3989
scalar Scenario2.node[127].nic.mac1609_4 	SentPackets 	36
scalar Scenario2.node[127].nic.mac1609_4 	SNIRLostPackets 	129
scalar Scenario2.node[127].nic.mac1609_4 	RXTXLostPackets 	16
scalar Scenario2.node[127].nic.mac1609_4 	TotalLostPackets 	145
scalar Scenario2.node[127].nic.mac1609_4 	DroppedPacketsInMac 	0
scalar Scenario2.node[127].nic.mac1609_4 	TooLittleTime 	0
scalar Scenario2.node[127].nic.mac1609_4 	TimesIntoBackoff 	36
scalar Scenario2.node[127].nic.mac1609_4 	SlotsBackoff 	55
scalar Scenario2.node[127].nic.mac1609_4 	NumInternalContention 	0
scalar Scenario2.node[127].nic.mac1609_4 	totalBusyTime 	0.420516150764
scalar Scenario2.node[127].veinsmobility 	startTime 	12
scalar Scenario2.node[127].veinsmobility 	totalTime 	34
scalar Scenario2.node[127].veinsmobility 	stopTime 	47
scalar Scenario2.node[127].veinsmobility 	minSpeed 	3.570553295702
scalar Scenario2.node[127].veinsmobility 	maxSpeed 	18.975364867717
scalar Scenario2.node[127].veinsmobility 	totalDistance 	531.42299839614
scalar Scenario2.node[127].veinsmobility 	totalCO2Emission 	124.39114956524
scalar Scenario2.node[137].appl 	generatedWSMs 	1
scalar Scenario2.node[137].appl 	receivedWSMs 	5
scalar Scenario2.node[137].appl 	generatedBSMs 	34
scalar Scenario2.node[137].appl 	receivedBSMs 	3882
scalar Scenario2.node[137].appl 	generatedWSAs 	0
scalar Scenario2.node[137].appl 	receivedWSAs 	0
scalar Scenario2.node[137].appl 	delayWSM 	0.005478483309
scalar Scenario2.node[137].appl 	Dist_Propa 	319.94593694767
scalar Scenario2.node[137].nic.phy80211p 	busyTime 	0.012791294117647
scalar Scenario2.node[137].nic.phy80211p 	ncollisions 	8
scalar Scenario2.node[137].nic.mac1609_4 	ReceivedUnicastPackets 	0
scalar Scenario2.node[137].nic.mac1609_4 	ReceivedBroadcasts 	3887
scalar Scenario2.node[137].nic.mac1609_4 	SentPackets 	35
scalar Scenario2.node[137].nic.mac1609_4 	SNIRLostPackets 	136
scalar Scenario2.node[137].nic.mac1609_4 	RXTXLostPackets 	16
scalar Scenario2.node[137].nic.mac1609_4 	TotalLostPackets 	152
scalar Scenario2.node[137].nic.mac1609_4 	DroppedPacketsInMac 	0
scalar Scenario2.node[137].nic.mac1609_4 	TooLittleTime 	0
scalar Scenario2.node[137].nic.mac1609_4 	TimesIntoBackoff 	35
scalar Scenario2.node[137].nic.mac1609_4 	SlotsBackoff 	49
scalar Scenario2.node[137].nic.mac1609_4 	NumInternalContention 	0
scalar Scenario2.node[137].nic.mac1609_4 	totalBusyTime 	0.410035011621
scalar Scenario2.node[137].veinsmobility 	startTime 	15
scalar Scenario2.node[137].veinsmobility 	totalTime 	33
scalar Scenario2.node[137].veinsmobility 	stopTime 	49
scalar Scenario2.node[137].veinsmobility 	minSpeed 	3.7054345497005
scalar Scenario2.node[137].veinsmobility 	maxSpeed 	18.949315995281
scalar Scenario2.node[137].veinsmobility 	totalDistance 	521.67415162342
scalar Scenario2.node[137].veinsmobility 	totalCO2Emission 	120.89327527729
scalar Scenario2.node[141].appl 	generatedWSMs 	1
scalar Scenario2.node[141].appl 	receivedWSMs 	5
scalar Scenario2.node[141].appl 	generatedBSMs 	34
scalar Scenario2.node[141].appl 	receivedBSMs 	3902
scalar Scenario2.node[141].appl 	generatedWSAs 	0
scalar Scenario2.node[141].appl 	receivedWSAs 	0
scalar Scenario2.node[141].appl 	delayWSM 	0.005478483123
scalar Scenario2.node[141].appl 	Dist_Propa 	319.28874121579
scalar Scenario2.node[141].nic.phy80211p 	busyTime 	0.012852470588235
scalar Scenario2.node[141].nic.phy80211p 	ncollisions 	8
scalar Scenario2.node[141].nic.mac1609_4 	ReceivedUnicastPackets 	0
scalar Scenario2.node[141].nic.mac1609_4 	ReceivedBroadcasts 	3907
scalar Scenario2.node[141].nic.mac1609_4 	SentPackets 	35
scalar Scenario2.node[141].nic.mac1609_4 	SNIRLostPackets 	136
scalar Scenario2.node[141].nic.mac1609_4 	RXTXLostPackets 	16
scalar Scenario2.node[141].nic.mac1609_4 	TotalLostPackets 	152
scalar Scenario2.node[141].nic.mac1609_4 	DroppedPacketsInMac 	0
scalar Scenario2.node[141].nic.mac1609_4 	TooLittleTime 	0
scalar Scenario2.node[141].nic.mac1609_4 	TimesIntoBackoff 	35
scalar Scenario2.node[141].nic.mac1609_4 	SlotsBackoff 	55
scalar Scenario2.node[141].nic.mac1609_4 	NumInternalContention 	0
scalar Scenario2.node[141].nic.mac1609_4 	totalBusyTime 	0.41211501042
scalar Scenario2.node[141].veinsmobility 	startTime 	15
scalar Scenario2.node[141].veinsmobility 	totalTime 	33
scalar Scenario2.node[141].veinsmobility 	stopTime 	49
scalar Scenario2.node[141].veinsmobility 	minSpeed 	2.4699518346809
scalar Scenario2.node[141].veinsmobility 	maxSpeed 	18.998616740918
scalar Scenario2.node[141].veinsmobility 	totalDistance 	536.39102144913
scalar Scenario2.node[141].veinsmobility 	totalCO2Emission 	124.36501758974
scalar Scenario2.node[105].appl 	generatedWSMs 	1
scalar Scenario2.node[105].appl 	receivedWSMs 	8
scalar Scenario2.node[105].appl 	generatedBSMs 	42
scalar Scenario2.node[105].appl 	receivedBSMs 	4896
scalar Scenario2.node[105].appl 	generatedWSAs 	0
scalar Scenario2.node[105].appl 	receivedWSAs 	0
scalar Scenario2.node[105].appl 	delayWSM 	0.000234088977
scalar Scenario2.node[105].appl 	Dist_Propa 	411.69100565377
scalar Scenario2.node[105].nic.phy80211p 	busyTime 	0.013127809523809
scalar Scenario2.node[105].nic.phy80211p 	ncollisions 	25
scalar Scenario2.node[105].nic.mac1609_4 	ReceivedUnicastPackets 	0
scalar Scenario2.node[105].nic.mac1609_4 	ReceivedBroadcasts 	4904
scalar Scenario2.node[105].nic.mac1609_4 	SentPackets 	43
scalar Scenario2.node[105].nic.mac1609_4 	SNIRLostPackets 	197
scalar Scenario2.node[105].nic.mac1609_4 	RXTXLostPackets 	0
scalar Scenario2.node[105].nic.mac1609_4 	TotalLostPackets 	197
scalar Scenario2.node[105].nic.mac1609_4 	DroppedPacketsInMac 	0
scalar Scenario2.node[105].nic.mac1609_4 	TooLittleTime 	0
scalar Scenario2.node[105].nic.mac1609_4 	TimesIntoBackoff 	43
scalar Scenario2.node[105].nic.mac1609_4 	SlotsBackoff 	41
scalar Scenario2.node[105].nic.mac1609_4 	NumInternalContention 	0
scalar Scenario2.node[105].nic.mac1609_4 	totalBusyTime 	0.518923188914
scalar Scenario2.node[105].veinsmobility 	startTime 	7
scalar Scenario2.node[105].veinsmobility 	totalTime 	41
scalar Scenario2.node[105].veinsmobility 	stopTime 	49
scalar Scenario2.node[105].veinsmobility 	minSpeed 	0.79846306713479
scalar Scenario2.node[105].veinsmobility 	maxSpeed 	18.9987192666
scalar Scenario2.node[105].veinsmobility 	totalDistance 	574.23690866301
scalar Scenario2.node[105].veinsmobility 	totalCO2Emission 	139.39240827924
scalar Scenario2.node[163].appl 	generatedWSMs 	1
scalar Scenario2.node[163].appl 	receivedWSMs 	4
scalar Scenario2.node[163].appl 	generatedBSMs 	32
scalar Scenario2.node[163].appl 	receivedBSMs 	3759
scalar Scenario2.node[163].appl 	generatedWSAs 	0
scalar Scenario2.node[163].appl 	receivedWSAs 	0
scalar Scenario2.node[163].appl 	delayWSM 	0.005478384664
scalar Scenario2.node[163].appl 	Dist_Propa 	361.12053909307
scalar Scenario2.node[163].nic.phy80211p 	busyTime 	0.013373
scalar Scenario2.node[163].nic.phy80211p 	ncollisions 	9
scalar Scenario2.node[163].nic.mac1609_4 	ReceivedUnicastPackets 	0
scalar Scenario2.node[163].nic.mac1609_4 	ReceivedBroadcasts 	3763
scalar Scenario2.node[163].nic.mac1609_4 	SentPackets 	33
scalar Scenario2.node[163].nic.mac1609_4 	SNIRLostPackets 	161
scalar Scenario2.node[163].nic.mac1609_4 	RXTXLostPackets 	0
scalar Scenario2.node[163].nic.mac1609_4 	TotalLostPackets 	161
scalar Scenario2.node[163].nic.mac1609_4 	DroppedPacketsInMac 	0
scalar Scenario2.node[163].nic.mac1609_4 	TooLittleTime 	0
scalar Scenario2.node[163].nic.mac1609_4 	TimesIntoBackoff 	33
scalar Scenario2.node[163].nic.mac1609_4 	SlotsBackoff 	38
scalar Scenario2.node[163].nic.mac1609_4 	NumInternalContention 	0
scalar Scenario2.node[163].nic.mac1609_4 	totalBusyTime 	0.397033000984
scalar Scenario2.node[163].veinsmobility 	startTime 	18
scalar Scenario2.node[163].veinsmobility 	totalTime 	31
scalar Scenario2.node[163].veinsmobility 	stopTime 	50
scalar Scenario2.node[163].veinsmobility 	minSpeed 	3.2362021176079
scalar Scenario2.node[163].veinsmobility 	maxSpeed 	18.995516344768
scalar Scenario2.node[163].veinsmobility 	totalDistance 	507.69244103002
scalar Scenario2.node[163].veinsmobility 	totalCO2Emission 	119.51915105506
scalar Scenario2.node[164].appl 	generatedWSMs 	1
scalar Scenario2.node[164].appl 	receivedWSMs 	9
scalar Scenario2.node[164].appl 	generatedBSMs 	33
scalar Scenario2.node[164].appl 	receivedBSMs 	4018
scalar Scenario2.node[164].appl 	generatedWSAs 	0
scalar Scenario2.node[164].appl 	receivedWSAs 	0
scalar Scenario2.node[164].appl 	delayWSM 	0.000234010932
scalar Scenario2.node[164].appl 	Dist_Propa 	456.16733822584
scalar Scenario2.node[164].nic.phy80211p 	busyTime 	0.013747393939393
scalar Scenario2.node[164].nic.phy80211p 	ncollisions 	27
scalar Scenario2.node[164].nic.mac1609_4 	ReceivedUnicastPackets 	0
scalar Scenario2.node[164].nic.mac1609_4 	ReceivedBroadcasts 	4027
scalar Scenario2.node[164].nic.mac1609_4 	SentPackets 	34
scalar Scenario2.node[164].nic.mac1609_4 	SNIRLostPackets 	169
scalar Scenario2.node[164].nic.mac1609_4 	RXTXLostPackets 	37
scalar Scenario2.node[164].nic.mac1609_4 	TotalLostPackets 	206
scalar Scenario2.node[164].nic.mac1609_4 	DroppedPacketsInMac 	0
scalar Scenario2.node[164].nic.mac1609_4 	TooLittleTime 	0
scalar Scenario2.node[164].nic.mac1609_4 	TimesIntoBackoff 	34
scalar Scenario2.node[164].nic.mac1609_4 	SlotsBackoff 	44
scalar Scenario2.node[164].nic.mac1609_4 	NumInternalContention 	0
scalar Scenario2.node[164].nic.mac1609_4 	totalBusyTime 	0.426978174846
scalar Scenario2.node[164].veinsmobility 	startTime 	18
scalar Scenario2.node[164].veinsmobility 	totalTime 	32
scalar Scenario2.node[164].veinsmobility 	stopTime 	51
scalar Scenario2.node[164].veinsmobility 	minSpeed 	2.6560707084217
scalar Scenario2.node[164].veinsmobility 	maxSpeed 	18.995079022406
scalar Scenario2.node[164].veinsmobility 	totalDistance 	520.46900373988
scalar Scenario2.node[164].veinsmobility 	totalCO2Emission 	121.70739795369
scalar Scenario2.node[151].appl 	generatedWSMs 	1
scalar Scenario2.node[151].appl 	receivedWSMs 	5
scalar Scenario2.node[151].appl 	generatedBSMs 	35
scalar Scenario2.node[151].appl 	receivedBSMs 	4292
scalar Scenario2.node[151].appl 	generatedWSAs 	0
scalar Scenario2.node[151].appl 	receivedWSAs 	0
scalar Scenario2.node[151].appl 	delayWSM 	0.000234301281
scalar Scenario2.node[151].appl 	Dist_Propa 	383.11489043508
scalar Scenario2.node[151].nic.phy80211p 	busyTime 	0.013896228571428
scalar Scenario2.node[151].nic.phy80211p 	ncollisions 	18
scalar Scenario2.node[151].nic.mac1609_4 	ReceivedUnicastPackets 	0
scalar Scenario2.node[151].nic.mac1609_4 	ReceivedBroadcasts 	4297
scalar Scenario2.node[151].nic.mac1609_4 	SentPackets 	36
scalar Scenario2.node[151].nic.mac1609_4 	SNIRLostPackets 	179
scalar Scenario2.node[151].nic.mac1609_4 	RXTXLostPackets 	0
scalar Scenario2.node[151].nic.mac1609_4 	TotalLostPackets 	179
scalar Scenario2.node[151].nic.mac1609_4 	DroppedPacketsInMac 	0
scalar Scenario2.node[151].nic.mac1609_4 	TooLittleTime 	0
scalar Scenario2.node[151].nic.mac1609_4 	TimesIntoBackoff 	62
scalar Scenario2.node[151].nic.mac1609_4 	SlotsBackoff 	102
scalar Scenario2.node[151].nic.mac1609_4 	NumInternalContention 	0
scalar Scenario2.node[151].nic.mac1609_4 	totalBusyTime 	0.453948011239
scalar Scenario2.node[151].veinsmobility 	startTime 	16
scalar Scenario2.node[151].veinsmobility 	totalTime 	34
scalar Scenario2.node[151].veinsmobility 	stopTime 	51
scalar Scenario2.node[151].veinsmobility 	minSpeed 	1.4619825295685
scalar Scenario2.node[151].veinsmobility 	maxSpeed 	18.99749420386
scalar Scenario2.node[151].veinsmobility 	totalDistance 	519.28776174372
scalar Scenario2.node[151].veinsmobility 	totalCO2Emission 	125.8211529421
scalar Scenario2.node[145].appl 	generatedWSMs 	1
scalar Scenario2.node[145].appl 	receivedWSMs 	6
scalar Scenario2.node[145].appl 	generatedBSMs 	35
scalar Scenario2.node[145].appl 	receivedBSMs 	4295
scalar Scenario2.node[145].appl 	generatedWSAs 	0
scalar Scenario2.node[145].appl 	receivedWSAs 	0
scalar Scenario2.node[145].appl 	delayWSM 	0.000234301755
scalar Scenario2.node[145].appl 	Dist_Propa 	385.62797474352
scalar Scenario2.node[145].nic.phy80211p 	busyTime 	0.013665828571428
scalar Scenario2.node[145].nic.phy80211p 	ncollisions 	19
scalar Scenario2.node[145].nic.mac1609_4 	ReceivedUnicastPackets 	0
scalar Scenario2.node[145].nic.mac1609_4 	ReceivedBroadcasts 	4301
scalar Scenario2.node[145].nic.mac1609_4 	SentPackets 	36
scalar Scenario2.node[145].nic.mac1609_4 	SNIRLostPackets 	143
scalar Scenario2.node[145].nic.mac1609_4 	RXTXLostPackets 	37
scalar Scenario2.node[145].nic.mac1609_4 	TotalLostPackets 	180
scalar Scenario2.node[145].nic.mac1609_4 	DroppedPacketsInMac 	0
scalar Scenario2.node[145].nic.mac1609_4 	TooLittleTime 	0
scalar Scenario2.node[145].nic.mac1609_4 	TimesIntoBackoff 	36
scalar Scenario2.node[145].nic.mac1609_4 	SlotsBackoff 	50
scalar Scenario2.node[145].nic.mac1609_4 	NumInternalContention 	0
scalar Scenario2.node[145].nic.mac1609_4 	totalBusyTime 	0.454468000759
scalar Scenario2.node[145].veinsmobility 	startTime 	16
scalar Scenario2.node[145].veinsmobility 	totalTime 	34
scalar Scenario2.node[145].veinsmobility 	stopTime 	51
scalar Scenario2.node[145].veinsmobility 	minSpeed 	3.482900294836
scalar Scenario2.node[145].veinsmobility 	maxSpeed 	18.993171909307
scalar Scenario2.node[145].veinsmobility 	totalDistance 	528.29977957109
scalar Scenario2.node[145].veinsmobility 	totalCO2Emission 	124.25854551765
scalar Scenario2.node[30].appl 	generatedWSMs 	1
scalar Scenario2.node[30].appl 	receivedWSMs 	9
scalar Scenario2.node[30].appl 	generatedBSMs 	51
scalar Scenario2.node[30].appl 	receivedBSMs 	5862
scalar Scenario2.node[30].appl 	generatedWSAs 	0
scalar Scenario2.node[30].appl 	receivedWSAs 	0
scalar Scenario2.node[30].appl 	delayWSM 	0.000233977205
scalar Scenario2.node[30].appl 	Dist_Propa 	479.60717431453
scalar Scenario2.node[30].nic.phy80211p 	busyTime 	0.012762352941176
scalar Scenario2.node[30].nic.phy80211p 	ncollisions 	40
scalar Scenario2.node[30].nic.mac1609_4 	ReceivedUnicastPackets 	0
scalar Scenario2.node[30].nic.mac1609_4 	ReceivedBroadcasts 	5871
scalar Scenario2.node[30].nic.mac1609_4 	SentPackets 	52
scalar Scenario2.node[30].nic.mac1609_4 	SNIRLostPackets 	209
scalar Scenario2.node[30].nic.mac1609_4 	RXTXLostPackets 	37
scalar Scenario2.node[30].nic.mac1609_4 	TotalLostPackets 	246
scalar Scenario2.node[30].nic.mac1609_4 	DroppedPacketsInMac 	0
scalar Scenario2.node[30].nic.mac1609_4 	TooLittleTime 	0
scalar Scenario2.node[30].nic.mac1609_4 	TimesIntoBackoff 	52
scalar Scenario2.node[30].nic.mac1609_4 	SlotsBackoff 	84
scalar Scenario2.node[30].nic.mac1609_4 	NumInternalContention 	0
scalar Scenario2.node[30].nic.mac1609_4 	totalBusyTime 	0.621996394364
scalar Scenario2.node[30].veinsmobility 	startTime 	1
scalar Scenario2.node[30].veinsmobility 	totalTime 	50
scalar Scenario2.node[30].veinsmobility 	stopTime 	52
scalar Scenario2.node[30].veinsmobility 	minSpeed 	2.6830987371857
scalar Scenario2.node[30].veinsmobility 	maxSpeed 	18.998360855293
scalar Scenario2.node[30].veinsmobility 	totalDistance 	840.56722214892
scalar Scenario2.node[30].veinsmobility 	totalCO2Emission 	180.75164650604
scalar Scenario2.node[7].appl 	generatedWSMs 	1
scalar Scenario2.node[7].appl 	receivedWSMs 	6
scalar Scenario2.node[7].appl 	generatedBSMs 	52
scalar Scenario2.node[7].appl 	receivedBSMs 	5969
scalar Scenario2.node[7].appl 	generatedWSAs 	0
scalar Scenario2.node[7].appl 	receivedWSAs 	0
scalar Scenario2.node[7].appl 	delayWSM 	0.00023423595
scalar Scenario2.node[7].appl 	Dist_Propa 	378.70124616797
scalar Scenario2.node[7].nic.phy80211p 	busyTime 	0.012624923076923
scalar Scenario2.node[7].nic.phy80211p 	ncollisions 	32
scalar Scenario2.node[7].nic.mac1609_4 	ReceivedUnicastPackets 	0
scalar Scenario2.node[7].nic.mac1609_4 	ReceivedBroadcasts 	5975
scalar Scenario2.node[7].nic.mac1609_4 	SentPackets 	53
scalar Scenario2.node[7].nic.mac1609_4 	SNIRLostPackets 	175
scalar Scenario2.node[7].nic.mac1609_4 	RXTXLostPackets 	37
scalar Scenario2.node[7].nic.mac1609_4 	TotalLostPackets 	212
scalar Scenario2.node[7].nic.mac1609_4 	DroppedPacketsInMac 	0
scalar Scenario2.node[7].nic.mac1609_4 	TooLittleTime 	0
scalar Scenario2.node[7].nic.mac1609_4 	TimesIntoBackoff 	53
scalar Scenario2.node[7].nic.mac1609_4 	SlotsBackoff 	70
scalar Scenario2.node[7].nic.mac1609_4 	NumInternalContention 	0
scalar Scenario2.node[7].nic.mac1609_4 	totalBusyTime 	0.631867092663
scalar Scenario2.node[7].veinsmobility 	startTime 	1
scalar Scenario2.node[7].veinsmobility 	totalTime 	51
scalar Scenario2.node[7].veinsmobility 	stopTime 	53
scalar Scenario2.node[7].veinsmobility 	minSpeed 	3.4814017046965
scalar Scenario2.node[7].veinsmobility 	maxSpeed 	18.941884985482
scalar Scenario2.node[7].veinsmobility 	totalDistance 	681.4852853963
scalar Scenario2.node[7].veinsmobility 	totalCO2Emission 	169.58589405808
scalar Scenario2.node[172].appl 	generatedWSMs 	1
scalar Scenario2.node[172].appl 	receivedWSMs 	6
scalar Scenario2.node[172].appl 	generatedBSMs 	33
scalar Scenario2.node[172].appl 	receivedBSMs 	4001
scalar Scenario2.node[172].appl 	generatedWSAs 	0
scalar Scenario2.node[172].appl 	receivedWSAs 	0
scalar Scenario2.node[172].appl 	delayWSM 	0.000234204018
scalar Scenario2.node[172].appl 	Dist_Propa 	412.89212244202
scalar Scenario2.node[172].nic.phy80211p 	busyTime 	0.013656
scalar Scenario2.node[172].nic.phy80211p 	ncollisions 	28
scalar Scenario2.node[172].nic.mac1609_4 	ReceivedUnicastPackets 	0
scalar Scenario2.node[172].nic.mac1609_4 	ReceivedBroadcasts 	4007
scalar Scenario2.node[172].nic.mac1609_4 	SentPackets 	34
scalar Scenario2.node[172].nic.mac1609_4 	SNIRLostPackets 	160
scalar Scenario2.node[172].nic.mac1609_4 	RXTXLostPackets 	37
scalar Scenario2.node[172].nic.mac1609_4 	TotalLostPackets 	197
scalar Scenario2.node[172].nic.mac1609_4 	DroppedPacketsInMac 	0
scalar Scenario2.node[172].nic.mac1609_4 	TooLittleTime 	0
scalar Scenario2.node[172].nic.mac1609_4 	TimesIntoBackoff 	34
scalar Scenario2.node[172].nic.mac1609_4 	SlotsBackoff 	52
scalar Scenario2.node[172].nic.mac1609_4 	NumInternalContention 	0
scalar Scenario2.node[172].nic.mac1609_4 	totalBusyTime 	0.424618195731
scalar Scenario2.node[172].veinsmobility 	startTime 	20
scalar Scenario2.node[172].veinsmobility 	totalTime 	32
scalar Scenario2.node[172].veinsmobility 	stopTime 	53
scalar Scenario2.node[172].veinsmobility 	minSpeed 	2.4127571361848
scalar Scenario2.node[172].veinsmobility 	maxSpeed 	18.994554119785
scalar Scenario2.node[172].veinsmobility 	totalDistance 	522.38118095875
scalar Scenario2.node[172].veinsmobility 	totalCO2Emission 	122.12195354617
scalar Scenario2.node[1].appl 	generatedWSMs 	1
scalar Scenario2.node[1].appl 	receivedWSMs 	5
scalar Scenario2.node[1].appl 	generatedBSMs 	53
scalar Scenario2.node[1].appl 	receivedBSMs 	6203
scalar Scenario2.node[1].appl 	generatedWSAs 	0
scalar Scenario2.node[1].appl 	receivedWSAs 	0
scalar Scenario2.node[1].appl 	delayWSM 	0.000234172545
scalar Scenario2.node[1].appl 	Dist_Propa 	373.92486825585
scalar Scenario2.node[1].nic.phy80211p 	busyTime 	0.013048754716981
scalar Scenario2.node[1].nic.phy80211p 	ncollisions 	35
scalar Scenario2.node[1].nic.mac1609_4 	ReceivedUnicastPackets 	0
scalar Scenario2.node[1].nic.mac1609_4 	ReceivedBroadcasts 	6208
scalar Scenario2.node[1].nic.mac1609_4 	SentPackets 	54
scalar Scenario2.node[1].nic.mac1609_4 	SNIRLostPackets 	224
scalar Scenario2.node[1].nic.mac1609_4 	RXTXLostPackets 	0
scalar Scenario2.node[1].nic.mac1609_4 	TotalLostPackets 	224
scalar Scenario2.node[1].nic.mac1609_4 	DroppedPacketsInMac 	0
scalar Scenario2.node[1].nic.mac1609_4 	TooLittleTime 	0
scalar Scenario2.node[1].nic.mac1609_4 	TimesIntoBackoff 	54
scalar Scenario2.node[1].nic.mac1609_4 	SlotsBackoff 	94
scalar Scenario2.node[1].nic.mac1609_4 	NumInternalContention 	0
scalar Scenario2.node[1].nic.mac1609_4 	totalBusyTime 	0.656350127286
scalar Scenario2.node[1].veinsmobility 	startTime 	1
scalar Scenario2.node[1].veinsmobility 	totalTime 	52
scalar Scenario2.node[1].veinsmobility 	stopTime 	54
scalar Scenario2.node[1].veinsmobility 	minSpeed 	3.7822135175928
scalar Scenario2.node[1].veinsmobility 	maxSpeed 	18.973847482234
scalar Scenario2.node[1].veinsmobility 	totalDistance 	704.43927912732
scalar Scenario2.node[1].veinsmobility 	totalCO2Emission 	171.29382234949
scalar Scenario2.node[0].appl 	generatedWSMs 	1
scalar Scenario2.node[0].appl 	receivedWSMs 	6
scalar Scenario2.node[0].appl 	generatedBSMs 	54
scalar Scenario2.node[0].appl 	receivedBSMs 	6409
scalar Scenario2.node[0].appl 	generatedWSAs 	0
scalar Scenario2.node[0].appl 	receivedWSAs 	0
scalar Scenario2.node[0].appl 	delayWSM 	0.00023411198
scalar Scenario2.node[0].appl 	Dist_Propa 	368.86134283626
scalar Scenario2.node[0].nic.phy80211p 	busyTime 	0.013070222222222
scalar Scenario2.node[0].nic.phy80211p 	ncollisions 	35
scalar Scenario2.node[0].nic.mac1609_4 	ReceivedUnicastPackets 	0
scalar Scenario2.node[0].nic.mac1609_4 	ReceivedBroadcasts 	6415
scalar Scenario2.node[0].nic.mac1609_4 	SentPackets 	55
scalar Scenario2.node[0].nic.mac1609_4 	SNIRLostPackets 	193
scalar Scenario2.node[0].nic.mac1609_4 	RXTXLostPackets 	37
scalar Scenario2.node[0].nic.mac1609_4 	TotalLostPackets 	230
scalar Scenario2.node[0].nic.mac1609_4 	DroppedPacketsInMac 	0
scalar Scenario2.node[0].nic.mac1609_4 	TooLittleTime 	0
scalar Scenario2.node[0].nic.mac1609_4 	TimesIntoBackoff 	55
scalar Scenario2.node[0].nic.mac1609_4 	SlotsBackoff 	88
scalar Scenario2.node[0].nic.mac1609_4 	NumInternalContention 	0
scalar Scenario2.node[0].nic.mac1609_4 	totalBusyTime 	0.677983248552
scalar Scenario2.node[0].veinsmobility 	startTime 	1
scalar Scenario2.node[0].veinsmobility 	totalTime 	53
scalar Scenario2.node[0].veinsmobility 	stopTime 	55
scalar Scenario2.node[0].veinsmobility 	minSpeed 	4.0518554631622
scalar Scenario2.node[0].veinsmobility 	maxSpeed 	18.978534762523
scalar Scenario2.node[0].veinsmobility 	totalDistance 	722.21584162014
scalar Scenario2.node[0].veinsmobility 	totalCO2Emission 	172.20829987187
scalar Scenario2.node[187].appl 	generatedWSMs 	1
scalar Scenario2.node[187].appl 	receivedWSMs 	6
scalar Scenario2.node[187].appl 	generatedBSMs 	32
scalar Scenario2.node[187].appl 	receivedBSMs 	3907
scalar Scenario2.node[187].appl 	generatedWSAs 	0
scalar Scenario2.node[187].appl 	receivedWSAs 	0
scalar Scenario2.node[187].appl 	delayWSM 	0.000234036738
scalar Scenario2.node[187].appl 	Dist_Propa 	291.96841030908
scalar Scenario2.node[187].nic.phy80211p 	busyTime 	0.01390875
scalar Scenario2.node[187].nic.phy80211p 	ncollisions 	34
scalar Scenario2.node[187].nic.mac1609_4 	ReceivedUnicastPackets 	0
scalar Scenario2.node[187].nic.mac1609_4 	ReceivedBroadcasts 	3913
scalar Scenario2.node[187].nic.mac1609_4 	SentPackets 	33
scalar Scenario2.node[187].nic.mac1609_4 	SNIRLostPackets 	182
scalar Scenario2.node[187].nic.mac1609_4 	RXTXLostPackets 	37
scalar Scenario2.node[187].nic.mac1609_4 	TotalLostPackets 	219
scalar Scenario2.node[187].nic.mac1609_4 	DroppedPacketsInMac 	0
scalar Scenario2.node[187].nic.mac1609_4 	TooLittleTime 	0
scalar Scenario2.node[187].nic.mac1609_4 	TimesIntoBackoff 	33
scalar Scenario2.node[187].nic.mac1609_4 	SlotsBackoff 	40
scalar Scenario2.node[187].nic.mac1609_4 	NumInternalContention 	0
scalar Scenario2.node[187].nic.mac1609_4 	totalBusyTime 	0.415361293999
scalar Scenario2.node[187].veinsmobility 	startTime 	24
scalar Scenario2.node[187].veinsmobility 	totalTime 	31
scalar Scenario2.node[187].veinsmobility 	stopTime 	56
scalar Scenario2.node[187].veinsmobility 	minSpeed 	3.5479495325158
scalar Scenario2.node[187].veinsmobility 	maxSpeed 	18.989325714761
scalar Scenario2.node[187].veinsmobility 	totalDistance 	512.82987526149
scalar Scenario2.node[187].veinsmobility 	totalCO2Emission 	119.00436191503
scalar Scenario2.node[59].appl 	generatedWSMs 	1
scalar Scenario2.node[59].appl 	receivedWSMs 	6
scalar Scenario2.node[59].appl 	generatedBSMs 	54
scalar Scenario2.node[59].appl 	receivedBSMs 	6584
scalar Scenario2.node[59].appl 	generatedWSAs 	0
scalar Scenario2.node[59].appl 	receivedWSAs 	0
scalar Scenario2.node[59].appl 	delayWSM 	0.000234053912
scalar Scenario2.node[59].appl 	Dist_Propa 	359.88487931988
scalar Scenario2.node[59].nic.phy80211p 	busyTime 	0.013426814814814
scalar Scenario2.node[59].nic.phy80211p 	ncollisions 	34
scalar Scenario2.node[59].nic.mac1609_4 	ReceivedUnicastPackets 	0
scalar Scenario2.node[59].nic.mac1609_4 	ReceivedBroadcasts 	6590
scalar Scenario2.node[59].nic.mac1609_4 	SentPackets 	55
scalar Scenario2.node[59].nic.mac1609_4 	SNIRLostPackets 	197
scalar Scenario2.node[59].nic.mac1609_4 	RXTXLostPackets 	37
scalar Scenario2.node[59].nic.mac1609_4 	TotalLostPackets 	234
scalar Scenario2.node[59].nic.mac1609_4 	DroppedPacketsInMac 	0
scalar Scenario2.node[59].nic.mac1609_4 	TooLittleTime 	0
scalar Scenario2.node[59].nic.mac1609_4 	TimesIntoBackoff 	55
scalar Scenario2.node[59].nic.mac1609_4 	SlotsBackoff 	86
scalar Scenario2.node[59].nic.mac1609_4 	NumInternalContention 	0
scalar Scenario2.node[59].nic.mac1609_4 	totalBusyTime 	0.696079302012
scalar Scenario2.node[59].veinsmobility 	startTime 	2
scalar Scenario2.node[59].veinsmobility 	totalTime 	53
scalar Scenario2.node[59].veinsmobility 	stopTime 	56
scalar Scenario2.node[59].veinsmobility 	minSpeed 	3.6013252442564
scalar Scenario2.node[59].veinsmobility 	maxSpeed 	18.987841719773
scalar Scenario2.node[59].veinsmobility 	totalDistance 	716.20343049081
scalar Scenario2.node[59].veinsmobility 	totalCO2Emission 	168.97854168429
scalar Scenario2.node[79].appl 	generatedWSMs 	1
scalar Scenario2.node[79].appl 	receivedWSMs 	6
scalar Scenario2.node[79].appl 	generatedBSMs 	53
scalar Scenario2.node[79].appl 	receivedBSMs 	6382
scalar Scenario2.node[79].appl 	generatedWSAs 	0
scalar Scenario2.node[79].appl 	receivedWSAs 	0
scalar Scenario2.node[79].appl 	delayWSM 	0.000233890471
scalar Scenario2.node[79].appl 	Dist_Propa 	338.82772823636
scalar Scenario2.node[79].nic.phy80211p 	busyTime 	0.013271999999999
scalar Scenario2.node[79].nic.phy80211p 	ncollisions 	34
scalar Scenario2.node[79].nic.mac1609_4 	ReceivedUnicastPackets 	0
scalar Scenario2.node[79].nic.mac1609_4 	ReceivedBroadcasts 	6388
scalar Scenario2.node[79].nic.mac1609_4 	SentPackets 	54
scalar Scenario2.node[79].nic.mac1609_4 	SNIRLostPackets 	191
scalar Scenario2.node[79].nic.mac1609_4 	RXTXLostPackets 	37
scalar Scenario2.node[79].nic.mac1609_4 	TotalLostPackets 	228
scalar Scenario2.node[79].nic.mac1609_4 	DroppedPacketsInMac 	0
scalar Scenario2.node[79].nic.mac1609_4 	TooLittleTime 	0
scalar Scenario2.node[79].nic.mac1609_4 	TimesIntoBackoff 	54
scalar Scenario2.node[79].nic.mac1609_4 	SlotsBackoff 	69
scalar Scenario2.node[79].nic.mac1609_4 	NumInternalContention 	0
scalar Scenario2.node[79].nic.mac1609_4 	totalBusyTime 	0.674966300405
scalar Scenario2.node[79].veinsmobility 	startTime 	3
scalar Scenario2.node[79].veinsmobility 	totalTime 	52
scalar Scenario2.node[79].veinsmobility 	stopTime 	56
scalar Scenario2.node[79].veinsmobility 	minSpeed 	2.4267099683262
scalar Scenario2.node[79].veinsmobility 	maxSpeed 	18.985454387709
scalar Scenario2.node[79].veinsmobility 	totalDistance 	605.76482859178
scalar Scenario2.node[79].veinsmobility 	totalCO2Emission 	160.49542827298
scalar Scenario2.node[184].appl 	generatedWSMs 	1
scalar Scenario2.node[184].appl 	receivedWSMs 	6
scalar Scenario2.node[184].appl 	generatedBSMs 	34
scalar Scenario2.node[184].appl 	receivedBSMs 	4298
scalar Scenario2.node[184].appl 	generatedWSAs 	0
scalar Scenario2.node[184].appl 	receivedWSAs 	0
scalar Scenario2.node[184].appl 	delayWSM 	0.000233977651
scalar Scenario2.node[184].appl 	Dist_Propa 	240.9288554728
scalar Scenario2.node[184].nic.phy80211p 	busyTime 	0.014329882352941
scalar Scenario2.node[184].nic.phy80211p 	ncollisions 	36
scalar Scenario2.node[184].nic.mac1609_4 	ReceivedUnicastPackets 	0
scalar Scenario2.node[184].nic.mac1609_4 	ReceivedBroadcasts 	4304
scalar Scenario2.node[184].nic.mac1609_4 	SentPackets 	35
scalar Scenario2.node[184].nic.mac1609_4 	SNIRLostPackets 	190
scalar Scenario2.node[184].nic.mac1609_4 	RXTXLostPackets 	37
scalar Scenario2.node[184].nic.mac1609_4 	TotalLostPackets 	227
scalar Scenario2.node[184].nic.mac1609_4 	DroppedPacketsInMac 	0
scalar Scenario2.node[184].nic.mac1609_4 	TooLittleTime 	0
scalar Scenario2.node[184].nic.mac1609_4 	TimesIntoBackoff 	35
scalar Scenario2.node[184].nic.mac1609_4 	SlotsBackoff 	53
scalar Scenario2.node[184].nic.mac1609_4 	NumInternalContention 	0
scalar Scenario2.node[184].nic.mac1609_4 	totalBusyTime 	0.456443322789
scalar Scenario2.node[184].veinsmobility 	startTime 	23
scalar Scenario2.node[184].veinsmobility 	totalTime 	33
scalar Scenario2.node[184].veinsmobility 	stopTime 	57
scalar Scenario2.node[184].veinsmobility 	minSpeed 	1.4962625184391
scalar Scenario2.node[184].veinsmobility 	maxSpeed 	18.979892871417
scalar Scenario2.node[184].veinsmobility 	totalDistance 	514.97323348459
scalar Scenario2.node[184].veinsmobility 	totalCO2Emission 	122.9472972326
scalar Scenario2.node[13].appl 	generatedWSMs 	1
scalar Scenario2.node[13].appl 	receivedWSMs 	6
scalar Scenario2.node[13].appl 	generatedBSMs 	56
scalar Scenario2.node[13].appl 	receivedBSMs 	6829
scalar Scenario2.node[13].appl 	generatedWSAs 	0
scalar Scenario2.node[13].appl 	receivedWSAs 	0
scalar Scenario2.node[13].appl 	delayWSM 	0.000233998273
scalar Scenario2.node[13].appl 	Dist_Propa 	346.03759280342
scalar Scenario2.node[13].nic.phy80211p 	busyTime 	0.013415142857142
scalar Scenario2.node[13].nic.phy80211p 	ncollisions 	30
scalar Scenario2.node[13].nic.mac1609_4 	ReceivedUnicastPackets 	0
scalar Scenario2.node[13].nic.mac1609_4 	ReceivedBroadcasts 	6835
scalar Scenario2.node[13].nic.mac1609_4 	SentPackets 	57
scalar Scenario2.node[13].nic.mac1609_4 	SNIRLostPackets 	199
scalar Scenario2.node[13].nic.mac1609_4 	RXTXLostPackets 	37
scalar Scenario2.node[13].nic.mac1609_4 	TotalLostPackets 	236
scalar Scenario2.node[13].nic.mac1609_4 	DroppedPacketsInMac 	0
scalar Scenario2.node[13].nic.mac1609_4 	TooLittleTime 	0
scalar Scenario2.node[13].nic.mac1609_4 	TimesIntoBackoff 	57
scalar Scenario2.node[13].nic.mac1609_4 	SlotsBackoff 	104
scalar Scenario2.node[13].nic.mac1609_4 	NumInternalContention 	0
scalar Scenario2.node[13].nic.mac1609_4 	totalBusyTime 	0.72135330308
scalar Scenario2.node[13].veinsmobility 	startTime 	1
scalar Scenario2.node[13].veinsmobility 	totalTime 	55
scalar Scenario2.node[13].veinsmobility 	stopTime 	57
scalar Scenario2.node[13].veinsmobility 	minSpeed 	3.7319341546602
scalar Scenario2.node[13].veinsmobility 	maxSpeed 	18.914364551105
scalar Scenario2.node[13].veinsmobility 	totalDistance 	760.32197011235
scalar Scenario2.node[13].veinsmobility 	totalCO2Emission 	178.60946014272
scalar Scenario2.node[168].appl 	generatedWSMs 	1
scalar Scenario2.node[168].appl 	receivedWSMs 	6
scalar Scenario2.node[168].appl 	generatedBSMs 	38
scalar Scenario2.node[168].appl 	receivedBSMs 	5000
scalar Scenario2.node[168].appl 	generatedWSAs 	0
scalar Scenario2.node[168].appl 	receivedWSAs 	0
scalar Scenario2.node[168].appl 	delayWSM 	0.000233933856
scalar Scenario2.node[168].appl 	Dist_Propa 	210.0910704294
scalar Scenario2.node[168].nic.phy80211p 	busyTime 	0.014742736842105
scalar Scenario2.node[168].nic.phy80211p 	ncollisions 	33
scalar Scenario2.node[168].nic.mac1609_4 	ReceivedUnicastPackets 	0
scalar Scenario2.node[168].nic.mac1609_4 	ReceivedBroadcasts 	5006
scalar Scenario2.node[168].nic.mac1609_4 	SentPackets 	39
scalar Scenario2.node[168].nic.mac1609_4 	SNIRLostPackets 	190
scalar Scenario2.node[168].nic.mac1609_4 	RXTXLostPackets 	37
scalar Scenario2.node[168].nic.mac1609_4 	TotalLostPackets 	227
scalar Scenario2.node[168].nic.mac1609_4 	DroppedPacketsInMac 	0
scalar Scenario2.node[168].nic.mac1609_4 	TooLittleTime 	0
scalar Scenario2.node[168].nic.mac1609_4 	TimesIntoBackoff 	39
scalar Scenario2.node[168].nic.mac1609_4 	SlotsBackoff 	52
scalar Scenario2.node[168].nic.mac1609_4 	NumInternalContention 	0
scalar Scenario2.node[168].nic.mac1609_4 	totalBusyTime 	0.529559357121
scalar Scenario2.node[168].veinsmobility 	startTime 	20
scalar Scenario2.node[168].veinsmobility 	totalTime 	37
scalar Scenario2.node[168].veinsmobility 	stopTime 	58
scalar Scenario2.node[168].veinsmobility 	minSpeed 	0
scalar Scenario2.node[168].veinsmobility 	maxSpeed 	18.968500454263
scalar Scenario2.node[168].veinsmobility 	totalDistance 	523.20473672205
scalar Scenario2.node[168].veinsmobility 	totalCO2Emission 	132.34195669029
scalar Scenario2.node[9].appl 	generatedWSMs 	1
scalar Scenario2.node[9].appl 	receivedWSMs 	6
scalar Scenario2.node[9].appl 	generatedBSMs 	58
scalar Scenario2.node[9].appl 	receivedBSMs 	7032
scalar Scenario2.node[9].appl 	generatedWSAs 	0
scalar Scenario2.node[9].appl 	receivedWSAs 	0
scalar Scenario2.node[9].appl 	delayWSM 	0.000233944725
scalar Scenario2.node[9].appl 	Dist_Propa 	337.97496410198
scalar Scenario2.node[9].nic.phy80211p 	busyTime 	0.013304413793103
scalar Scenario2.node[9].nic.phy80211p 	ncollisions 	32
scalar Scenario2.node[9].nic.mac1609_4 	ReceivedUnicastPackets 	0
scalar Scenario2.node[9].nic.mac1609_4 	ReceivedBroadcasts 	7038
scalar Scenario2.node[9].nic.mac1609_4 	SentPackets 	59
scalar Scenario2.node[9].nic.mac1609_4 	SNIRLostPackets 	191
scalar Scenario2.node[9].nic.mac1609_4 	RXTXLostPackets 	50
scalar Scenario2.node[9].nic.mac1609_4 	TotalLostPackets 	241
scalar Scenario2.node[9].nic.mac1609_4 	DroppedPacketsInMac 	0
scalar Scenario2.node[9].nic.mac1609_4 	TooLittleTime 	0
scalar Scenario2.node[9].nic.mac1609_4 	TimesIntoBackoff 	59
scalar Scenario2.node[9].nic.mac1609_4 	SlotsBackoff 	87
scalar Scenario2.node[9].nic.mac1609_4 	NumInternalContention 	0
scalar Scenario2.node[9].nic.mac1609_4 	totalBusyTime 	0.742883336835
scalar Scenario2.node[9].veinsmobility 	startTime 	1
scalar Scenario2.node[9].veinsmobility 	totalTime 	57
scalar Scenario2.node[9].veinsmobility 	stopTime 	59
scalar Scenario2.node[9].veinsmobility 	minSpeed 	3.932047590691
scalar Scenario2.node[9].veinsmobility 	maxSpeed 	18.958448226
scalar Scenario2.node[9].veinsmobility 	totalDistance 	820.05985265805
scalar Scenario2.node[9].veinsmobility 	totalCO2Emission 	196.30053678776
scalar Scenario2.node[156].appl 	generatedWSMs 	1
scalar Scenario2.node[156].appl 	receivedWSMs 	6
scalar Scenario2.node[156].appl 	generatedBSMs 	42
scalar Scenario2.node[156].appl 	receivedBSMs 	5666
scalar Scenario2.node[156].appl 	generatedWSAs 	0
scalar Scenario2.node[156].appl 	receivedWSAs 	0
scalar Scenario2.node[156].appl 	delayWSM 	0.00023389665
scalar Scenario2.node[156].appl 	Dist_Propa 	174.27309324895
scalar Scenario2.node[156].nic.phy80211p 	busyTime 	0.014978666666666
scalar Scenario2.node[156].nic.phy80211p 	ncollisions 	33
scalar Scenario2.node[156].nic.mac1609_4 	ReceivedUnicastPackets 	0
scalar Scenario2.node[156].nic.mac1609_4 	ReceivedBroadcasts 	5672
scalar Scenario2.node[156].nic.mac1609_4 	SentPackets 	43
scalar Scenario2.node[156].nic.mac1609_4 	SNIRLostPackets 	190
scalar Scenario2.node[156].nic.mac1609_4 	RXTXLostPackets 	37
[...]
scalar Scenario2.node[251].nic.mac1609_4 	RXTXLostPackets 	0
scalar Scenario2.node[251].nic.mac1609_4 	TotalLostPackets 	0
scalar Scenario2.node[251].nic.mac1609_4 	DroppedPacketsInMac 	0
scalar Scenario2.node[251].nic.mac1609_4 	TooLittleTime 	0
scalar Scenario2.node[251].nic.mac1609_4 	TimesIntoBackoff 	7
scalar Scenario2.node[251].nic.mac1609_4 	SlotsBackoff 	17
scalar Scenario2.node[251].nic.mac1609_4 	NumInternalContention 	0
scalar Scenario2.node[251].nic.mac1609_4 	totalBusyTime 	0.015191
scalar Scenario2.node[251].veinsmobility 	startTime 	53
scalar Scenario2.node[251].veinsmobility 	totalTime 	7
scalar Scenario2.node[251].veinsmobility 	stopTime 	60
scalar Scenario2.node[251].veinsmobility 	minSpeed 	3.3749732255289
scalar Scenario2.node[251].veinsmobility 	maxSpeed 	14.969494598986
scalar Scenario2.node[251].veinsmobility 	totalDistance 	58.638704761298
scalar Scenario2.node[251].veinsmobility 	totalCO2Emission 	38.710387034317
scalar Scenario2.node[254].appl 	generatedWSMs 	0
scalar Scenario2.node[254].appl 	receivedWSMs 	0
scalar Scenario2.node[254].appl 	generatedBSMs 	5
scalar Scenario2.node[254].appl 	receivedBSMs 	94
scalar Scenario2.node[254].appl 	generatedWSAs 	0
scalar Scenario2.node[254].appl 	receivedWSAs 	0
scalar Scenario2.node[254].appl 	delayWSM 	-1
scalar Scenario2.node[254].appl 	Dist_Propa 	-1
scalar Scenario2.node[254].nic.phy80211p 	busyTime 	0.0019552
scalar Scenario2.node[254].nic.phy80211p 	ncollisions 	0
scalar Scenario2.node[254].nic.mac1609_4 	ReceivedUnicastPackets 	0
scalar Scenario2.node[254].nic.mac1609_4 	ReceivedBroadcasts 	94
scalar Scenario2.node[254].nic.mac1609_4 	SentPackets 	5
scalar Scenario2.node[254].nic.mac1609_4 	SNIRLostPackets 	0
scalar Scenario2.node[254].nic.mac1609_4 	RXTXLostPackets 	0
scalar Scenario2.node[254].nic.mac1609_4 	TotalLostPackets 	0
scalar Scenario2.node[254].nic.mac1609_4 	DroppedPacketsInMac 	0
scalar Scenario2.node[254].nic.mac1609_4 	TooLittleTime 	0
scalar Scenario2.node[254].nic.mac1609_4 	TimesIntoBackoff 	5
scalar Scenario2.node[254].nic.mac1609_4 	SlotsBackoff 	12
scalar Scenario2.node[254].nic.mac1609_4 	NumInternalContention 	0
scalar Scenario2.node[254].nic.mac1609_4 	totalBusyTime 	0.010301
scalar Scenario2.node[254].veinsmobility 	startTime 	55
scalar Scenario2.node[254].veinsmobility 	totalTime 	5
scalar Scenario2.node[254].veinsmobility 	stopTime 	60
scalar Scenario2.node[254].veinsmobility 	minSpeed 	4.1467374746261
scalar Scenario2.node[254].veinsmobility 	maxSpeed 	11.606694836134
scalar Scenario2.node[254].veinsmobility 	totalDistance 	34.638113438887
scalar Scenario2.node[254].veinsmobility 	totalCO2Emission 	22.250403430648
scalar Scenario2.node[255].appl 	generatedWSMs 	0
scalar Scenario2.node[255].appl 	receivedWSMs 	0
scalar Scenario2.node[255].appl 	generatedBSMs 	4
scalar Scenario2.node[255].appl 	receivedBSMs 	75
scalar Scenario2.node[255].appl 	generatedWSAs 	0
scalar Scenario2.node[255].appl 	receivedWSAs 	0
scalar Scenario2.node[255].appl 	delayWSM 	-1
scalar Scenario2.node[255].appl 	Dist_Propa 	-1
scalar Scenario2.node[255].nic.phy80211p 	busyTime 	0.00195
scalar Scenario2.node[255].nic.phy80211p 	ncollisions 	0
scalar Scenario2.node[255].nic.mac1609_4 	ReceivedUnicastPackets 	0
scalar Scenario2.node[255].nic.mac1609_4 	ReceivedBroadcasts 	75
scalar Scenario2.node[255].nic.mac1609_4 	SentPackets 	4
scalar Scenario2.node[255].nic.mac1609_4 	SNIRLostPackets 	0
scalar Scenario2.node[255].nic.mac1609_4 	RXTXLostPackets 	0
scalar Scenario2.node[255].nic.mac1609_4 	TotalLostPackets 	0
scalar Scenario2.node[255].nic.mac1609_4 	DroppedPacketsInMac 	0
scalar Scenario2.node[255].nic.mac1609_4 	TooLittleTime 	0
scalar Scenario2.node[255].nic.mac1609_4 	TimesIntoBackoff 	4
scalar Scenario2.node[255].nic.mac1609_4 	SlotsBackoff 	5
scalar Scenario2.node[255].nic.mac1609_4 	NumInternalContention 	0
scalar Scenario2.node[255].nic.mac1609_4 	totalBusyTime 	0.00822
scalar Scenario2.node[255].veinsmobility 	startTime 	56
scalar Scenario2.node[255].veinsmobility 	totalTime 	4
scalar Scenario2.node[255].veinsmobility 	stopTime 	60
scalar Scenario2.node[255].veinsmobility 	minSpeed 	2.4095380588329
scalar Scenario2.node[255].veinsmobility 	maxSpeed 	8.1382013312156
scalar Scenario2.node[255].veinsmobility 	totalDistance 	17.782100549166
scalar Scenario2.node[255].veinsmobility 	totalCO2Emission 	12.921392037435
scalar Scenario2.node[258].appl 	generatedWSMs 	0
scalar Scenario2.node[258].appl 	receivedWSMs 	0
scalar Scenario2.node[258].appl 	generatedBSMs 	2
scalar Scenario2.node[258].appl 	receivedBSMs 	35
scalar Scenario2.node[258].appl 	generatedWSAs 	0
scalar Scenario2.node[258].appl 	receivedWSAs 	0
scalar Scenario2.node[258].appl 	delayWSM 	-1
scalar Scenario2.node[258].appl 	Dist_Propa 	-1
scalar Scenario2.node[258].nic.phy80211p 	busyTime 	0.00182
scalar Scenario2.node[258].nic.phy80211p 	ncollisions 	0
scalar Scenario2.node[258].nic.mac1609_4 	ReceivedUnicastPackets 	0
scalar Scenario2.node[258].nic.mac1609_4 	ReceivedBroadcasts 	35
scalar Scenario2.node[258].nic.mac1609_4 	SentPackets 	2
scalar Scenario2.node[258].nic.mac1609_4 	SNIRLostPackets 	0
scalar Scenario2.node[258].nic.mac1609_4 	RXTXLostPackets 	0
scalar Scenario2.node[258].nic.mac1609_4 	TotalLostPackets 	0
scalar Scenario2.node[258].nic.mac1609_4 	DroppedPacketsInMac 	0
scalar Scenario2.node[258].nic.mac1609_4 	TooLittleTime 	0
scalar Scenario2.node[258].nic.mac1609_4 	TimesIntoBackoff 	2
scalar Scenario2.node[258].nic.mac1609_4 	SlotsBackoff 	3
scalar Scenario2.node[258].nic.mac1609_4 	NumInternalContention 	0
scalar Scenario2.node[258].nic.mac1609_4 	totalBusyTime 	0.00385
scalar Scenario2.node[258].veinsmobility 	startTime 	58
scalar Scenario2.node[258].veinsmobility 	totalTime 	2
scalar Scenario2.node[258].veinsmobility 	stopTime 	60
scalar Scenario2.node[258].veinsmobility 	minSpeed 	2.7294526099854
scalar Scenario2.node[258].veinsmobility 	maxSpeed 	4.5797816218155
scalar Scenario2.node[258].veinsmobility 	totalDistance 	5.6359190073888
scalar Scenario2.node[258].veinsmobility 	totalCO2Emission 	3.3820611870713
scalar Scenario2.node[130].appl 	generatedWSMs 	1
scalar Scenario2.node[130].appl 	receivedWSMs 	8
scalar Scenario2.node[130].appl 	generatedBSMs 	48
scalar Scenario2.node[130].appl 	receivedBSMs 	6211
scalar Scenario2.node[130].appl 	generatedWSAs 	0
scalar Scenario2.node[130].appl 	receivedWSAs 	0
scalar Scenario2.node[130].appl 	delayWSM 	0.005479156851
scalar Scenario2.node[130].appl 	Dist_Propa 	813.08886065934
scalar Scenario2.node[130].nic.phy80211p 	busyTime 	0.014242166666666
scalar Scenario2.node[130].nic.phy80211p 	ncollisions 	30
scalar Scenario2.node[130].nic.mac1609_4 	ReceivedUnicastPackets 	0
scalar Scenario2.node[130].nic.mac1609_4 	ReceivedBroadcasts 	6219
scalar Scenario2.node[130].nic.mac1609_4 	SentPackets 	49
scalar Scenario2.node[130].nic.mac1609_4 	SNIRLostPackets 	182
scalar Scenario2.node[130].nic.mac1609_4 	RXTXLostPackets 	7
scalar Scenario2.node[130].nic.mac1609_4 	TotalLostPackets 	189
scalar Scenario2.node[130].nic.mac1609_4 	DroppedPacketsInMac 	0
scalar Scenario2.node[130].nic.mac1609_4 	TooLittleTime 	0
scalar Scenario2.node[130].nic.mac1609_4 	TimesIntoBackoff 	49
scalar Scenario2.node[130].nic.mac1609_4 	SlotsBackoff 	78
scalar Scenario2.node[130].nic.mac1609_4 	NumInternalContention 	0
scalar Scenario2.node[130].nic.mac1609_4 	totalBusyTime 	0.656705138463
scalar Scenario2.node[130].veinsmobility 	startTime 	12
scalar Scenario2.node[130].veinsmobility 	totalTime 	48
scalar Scenario2.node[130].veinsmobility 	stopTime 	60
scalar Scenario2.node[130].veinsmobility 	minSpeed 	3.257133028099
scalar Scenario2.node[130].veinsmobility 	maxSpeed 	18.999128500514
scalar Scenario2.node[130].veinsmobility 	totalDistance 	661.78815505913
scalar Scenario2.node[130].veinsmobility 	totalCO2Emission 	179.96048440599
scalar Scenario2.node[262].appl 	generatedWSMs 	0
scalar Scenario2.node[262].appl 	receivedWSMs 	0
scalar Scenario2.node[262].appl 	generatedBSMs 	0
scalar Scenario2.node[262].appl 	receivedBSMs 	0
scalar Scenario2.node[262].appl 	generatedWSAs 	0
scalar Scenario2.node[262].appl 	receivedWSAs 	0
scalar Scenario2.node[262].appl 	delayWSM 	-1
scalar Scenario2.node[262].appl 	Dist_Propa 	-1
scalar Scenario2.node[262].nic.phy80211p 	busyTime 	-nan
scalar Scenario2.node[262].nic.phy80211p 	ncollisions 	0
scalar Scenario2.node[262].nic.mac1609_4 	ReceivedUnicastPackets 	0
scalar Scenario2.node[262].nic.mac1609_4 	ReceivedBroadcasts 	0
scalar Scenario2.node[262].nic.mac1609_4 	SentPackets 	0
scalar Scenario2.node[262].nic.mac1609_4 	SNIRLostPackets 	0
scalar Scenario2.node[262].nic.mac1609_4 	RXTXLostPackets 	0
scalar Scenario2.node[262].nic.mac1609_4 	TotalLostPackets 	0
scalar Scenario2.node[262].nic.mac1609_4 	DroppedPacketsInMac 	0
scalar Scenario2.node[262].nic.mac1609_4 	TooLittleTime 	0
scalar Scenario2.node[262].nic.mac1609_4 	TimesIntoBackoff 	0
scalar Scenario2.node[262].nic.mac1609_4 	SlotsBackoff 	0
scalar Scenario2.node[262].nic.mac1609_4 	NumInternalContention 	0
scalar Scenario2.node[262].nic.mac1609_4 	totalBusyTime 	0
scalar Scenario2.node[262].veinsmobility 	startTime 	60
scalar Scenario2.node[262].veinsmobility 	totalTime 	0
scalar Scenario2.node[262].veinsmobility 	stopTime 	60
scalar Scenario2.node[262].veinsmobility 	totalDistance 	0
scalar Scenario2.node[262].veinsmobility 	totalCO2Emission 	0
scalar Scenario2.node[136].appl 	generatedWSMs 	1
scalar Scenario2.node[136].appl 	receivedWSMs 	8
scalar Scenario2.node[136].appl 	generatedBSMs 	46
scalar Scenario2.node[136].appl 	receivedBSMs 	5932
scalar Scenario2.node[136].appl 	generatedWSAs 	0
scalar Scenario2.node[136].appl 	receivedWSAs 	0
scalar Scenario2.node[136].appl 	delayWSM 	0.005479258979
scalar Scenario2.node[136].appl 	Dist_Propa 	848.75647791872
scalar Scenario2.node[136].nic.phy80211p 	busyTime 	0.014141391304347
scalar Scenario2.node[136].nic.phy80211p 	ncollisions 	28
scalar Scenario2.node[136].nic.mac1609_4 	ReceivedUnicastPackets 	0
scalar Scenario2.node[136].nic.mac1609_4 	ReceivedBroadcasts 	5940
scalar Scenario2.node[136].nic.mac1609_4 	SentPackets 	47
scalar Scenario2.node[136].nic.mac1609_4 	SNIRLostPackets 	161
scalar Scenario2.node[136].nic.mac1609_4 	RXTXLostPackets 	7
scalar Scenario2.node[136].nic.mac1609_4 	TotalLostPackets 	168
scalar Scenario2.node[136].nic.mac1609_4 	DroppedPacketsInMac 	0
scalar Scenario2.node[136].nic.mac1609_4 	TooLittleTime 	0
scalar Scenario2.node[136].nic.mac1609_4 	TimesIntoBackoff 	47
scalar Scenario2.node[136].nic.mac1609_4 	SlotsBackoff 	78
scalar Scenario2.node[136].nic.mac1609_4 	NumInternalContention 	0
scalar Scenario2.node[136].nic.mac1609_4 	totalBusyTime 	0.627271014041
scalar Scenario2.node[136].veinsmobility 	startTime 	14
scalar Scenario2.node[136].veinsmobility 	totalTime 	46
scalar Scenario2.node[136].veinsmobility 	stopTime 	60
scalar Scenario2.node[136].veinsmobility 	minSpeed 	3.4777492481221
scalar Scenario2.node[136].veinsmobility 	maxSpeed 	18.986348388898
scalar Scenario2.node[136].veinsmobility 	totalDistance 	641.93276437025
scalar Scenario2.node[136].veinsmobility 	totalCO2Emission 	170.05792350486
scalar Scenario2.node[154].appl 	generatedWSMs 	1
scalar Scenario2.node[154].appl 	receivedWSMs 	7
scalar Scenario2.node[154].appl 	generatedBSMs 	44
scalar Scenario2.node[154].appl 	receivedBSMs 	5660
scalar Scenario2.node[154].appl 	generatedWSAs 	0
scalar Scenario2.node[154].appl 	receivedWSAs 	0
scalar Scenario2.node[154].appl 	delayWSM 	0.005479358032
scalar Scenario2.node[154].appl 	Dist_Propa 	883.13430373647
scalar Scenario2.node[154].nic.phy80211p 	busyTime 	0.014071999999999
scalar Scenario2.node[154].nic.phy80211p 	ncollisions 	25
scalar Scenario2.node[154].nic.mac1609_4 	ReceivedUnicastPackets 	0
scalar Scenario2.node[154].nic.mac1609_4 	ReceivedBroadcasts 	5667
scalar Scenario2.node[154].nic.mac1609_4 	SentPackets 	45
scalar Scenario2.node[154].nic.mac1609_4 	SNIRLostPackets 	145
scalar Scenario2.node[154].nic.mac1609_4 	RXTXLostPackets 	0
scalar Scenario2.node[154].nic.mac1609_4 	TotalLostPackets 	145
scalar Scenario2.node[154].nic.mac1609_4 	DroppedPacketsInMac 	0
scalar Scenario2.node[154].nic.mac1609_4 	TooLittleTime 	0
scalar Scenario2.node[154].nic.mac1609_4 	TimesIntoBackoff 	45
scalar Scenario2.node[154].nic.mac1609_4 	SlotsBackoff 	63
scalar Scenario2.node[154].nic.mac1609_4 	NumInternalContention 	0
scalar Scenario2.node[154].nic.mac1609_4 	totalBusyTime 	0.59835700994
scalar Scenario2.node[154].veinsmobility 	startTime 	16
scalar Scenario2.node[154].veinsmobility 	totalTime 	44
scalar Scenario2.node[154].veinsmobility 	stopTime 	60
scalar Scenario2.node[154].veinsmobility 	minSpeed 	4.2176943966643
scalar Scenario2.node[154].veinsmobility 	maxSpeed 	18.990893175832
scalar Scenario2.node[154].veinsmobility 	totalDistance 	622.58382803624
scalar Scenario2.node[154].veinsmobility 	totalCO2Emission 	160.43838939463
scalar Scenario2.node[159].appl 	generatedWSMs 	1
scalar Scenario2.node[159].appl 	receivedWSMs 	7
scalar Scenario2.node[159].appl 	generatedBSMs 	43
scalar Scenario2.node[159].appl 	receivedBSMs 	5408
scalar Scenario2.node[159].appl 	generatedWSAs 	0
scalar Scenario2.node[159].appl 	receivedWSAs 	0
scalar Scenario2.node[159].appl 	delayWSM 	0.005479457562
scalar Scenario2.node[159].appl 	Dist_Propa 	915.507458614
scalar Scenario2.node[159].nic.phy80211p 	busyTime 	0.013634232558139
scalar Scenario2.node[159].nic.phy80211p 	ncollisions 	13
scalar Scenario2.node[159].nic.mac1609_4 	ReceivedUnicastPackets 	0
scalar Scenario2.node[159].nic.mac1609_4 	ReceivedBroadcasts 	5415
scalar Scenario2.node[159].nic.mac1609_4 	SentPackets 	44
scalar Scenario2.node[159].nic.mac1609_4 	SNIRLostPackets 	109
scalar Scenario2.node[159].nic.mac1609_4 	RXTXLostPackets 	7
scalar Scenario2.node[159].nic.mac1609_4 	TotalLostPackets 	116
scalar Scenario2.node[159].nic.mac1609_4 	DroppedPacketsInMac 	0
scalar Scenario2.node[159].nic.mac1609_4 	TooLittleTime 	0
scalar Scenario2.node[159].nic.mac1609_4 	TimesIntoBackoff 	44
scalar Scenario2.node[159].nic.mac1609_4 	SlotsBackoff 	55
scalar Scenario2.node[159].nic.mac1609_4 	NumInternalContention 	0
scalar Scenario2.node[159].nic.mac1609_4 	totalBusyTime 	0.570540067374
scalar Scenario2.node[159].veinsmobility 	startTime 	17
scalar Scenario2.node[159].veinsmobility 	totalTime 	43
scalar Scenario2.node[159].veinsmobility 	stopTime 	60
scalar Scenario2.node[159].veinsmobility 	minSpeed 	2.7087925310453
scalar Scenario2.node[159].veinsmobility 	maxSpeed 	18.998727781165
scalar Scenario2.node[159].veinsmobility 	totalDistance 	610.69359653895
scalar Scenario2.node[159].veinsmobility 	totalCO2Emission 	176.20026950234
scalar Scenario2.node[167].appl 	generatedWSMs 	1
scalar Scenario2.node[167].appl 	receivedWSMs 	6
scalar Scenario2.node[167].appl 	generatedBSMs 	41
scalar Scenario2.node[167].appl 	receivedBSMs 	5133
scalar Scenario2.node[167].appl 	generatedWSAs 	0
scalar Scenario2.node[167].appl 	receivedWSAs 	0
scalar Scenario2.node[167].appl 	delayWSM 	0.005770564117
scalar Scenario2.node[167].appl 	Dist_Propa 	941.53661411016
scalar Scenario2.node[167].nic.phy80211p 	busyTime 	0.013523707317073
scalar Scenario2.node[167].nic.phy80211p 	ncollisions 	11
scalar Scenario2.node[167].nic.mac1609_4 	ReceivedUnicastPackets 	0
scalar Scenario2.node[167].nic.mac1609_4 	ReceivedBroadcasts 	5139
scalar Scenario2.node[167].nic.mac1609_4 	SentPackets 	42
scalar Scenario2.node[167].nic.mac1609_4 	SNIRLostPackets 	94
scalar Scenario2.node[167].nic.mac1609_4 	RXTXLostPackets 	6
scalar Scenario2.node[167].nic.mac1609_4 	TotalLostPackets 	100
scalar Scenario2.node[167].nic.mac1609_4 	DroppedPacketsInMac 	0
scalar Scenario2.node[167].nic.mac1609_4 	TooLittleTime 	0
scalar Scenario2.node[167].nic.mac1609_4 	TimesIntoBackoff 	42
scalar Scenario2.node[167].nic.mac1609_4 	SlotsBackoff 	67
scalar Scenario2.node[167].nic.mac1609_4 	NumInternalContention 	0
scalar Scenario2.node[167].nic.mac1609_4 	totalBusyTime 	0.541290055258
scalar Scenario2.node[167].veinsmobility 	startTime 	19
scalar Scenario2.node[167].veinsmobility 	totalTime 	41
scalar Scenario2.node[167].veinsmobility 	stopTime 	60
scalar Scenario2.node[167].veinsmobility 	minSpeed 	3.3557482195866
scalar Scenario2.node[167].veinsmobility 	maxSpeed 	18.999923923542
scalar Scenario2.node[167].veinsmobility 	totalDistance 	604.47872223042
scalar Scenario2.node[167].veinsmobility 	totalCO2Emission 	148.9181485535
scalar Scenario2.node[175].appl 	generatedWSMs 	1
scalar Scenario2.node[175].appl 	receivedWSMs 	5
scalar Scenario2.node[175].appl 	generatedBSMs 	39
scalar Scenario2.node[175].appl 	receivedBSMs 	4746
scalar Scenario2.node[175].appl 	generatedWSAs 	0
scalar Scenario2.node[175].appl 	receivedWSAs 	0
scalar Scenario2.node[175].appl 	delayWSM 	0.005770701788
scalar Scenario2.node[175].appl 	Dist_Propa 	869.80479818806
scalar Scenario2.node[175].nic.phy80211p 	busyTime 	0.012972307692307
scalar Scenario2.node[175].nic.phy80211p 	ncollisions 	9
scalar Scenario2.node[175].nic.mac1609_4 	ReceivedUnicastPackets 	0
scalar Scenario2.node[175].nic.mac1609_4 	ReceivedBroadcasts 	4751
scalar Scenario2.node[175].nic.mac1609_4 	SentPackets 	40
scalar Scenario2.node[175].nic.mac1609_4 	SNIRLostPackets 	57
scalar Scenario2.node[175].nic.mac1609_4 	RXTXLostPackets 	6
scalar Scenario2.node[175].nic.mac1609_4 	TotalLostPackets 	63
scalar Scenario2.node[175].nic.mac1609_4 	DroppedPacketsInMac 	0
scalar Scenario2.node[175].nic.mac1609_4 	TooLittleTime 	0
scalar Scenario2.node[175].nic.mac1609_4 	TimesIntoBackoff 	40
scalar Scenario2.node[175].nic.mac1609_4 	SlotsBackoff 	61
scalar Scenario2.node[175].nic.mac1609_4 	NumInternalContention 	0
scalar Scenario2.node[175].nic.mac1609_4 	totalBusyTime 	0.500392175764
scalar Scenario2.node[175].veinsmobility 	startTime 	21
scalar Scenario2.node[175].veinsmobility 	totalTime 	39
scalar Scenario2.node[175].veinsmobility 	stopTime 	60
scalar Scenario2.node[175].veinsmobility 	minSpeed 	3.5815561515633
scalar Scenario2.node[175].veinsmobility 	maxSpeed 	18.991335381207
scalar Scenario2.node[175].veinsmobility 	totalDistance 	585.24651030782
scalar Scenario2.node[175].veinsmobility 	totalCO2Emission 	140.10945338174
scalar Scenario2.node[177].appl 	generatedWSMs 	1
scalar Scenario2.node[177].appl 	receivedWSMs 	5
scalar Scenario2.node[177].appl 	generatedBSMs 	38
scalar Scenario2.node[177].appl 	receivedBSMs 	4506
scalar Scenario2.node[177].appl 	generatedWSAs 	0
scalar Scenario2.node[177].appl 	receivedWSAs 	0
scalar Scenario2.node[177].appl 	delayWSM 	0.00577078967
scalar Scenario2.node[177].appl 	Dist_Propa 	814.2747556857
scalar Scenario2.node[177].nic.phy80211p 	busyTime 	0.012544842105263
scalar Scenario2.node[177].nic.phy80211p 	ncollisions 	7
scalar Scenario2.node[177].nic.mac1609_4 	ReceivedUnicastPackets 	0
scalar Scenario2.node[177].nic.mac1609_4 	ReceivedBroadcasts 	4511
scalar Scenario2.node[177].nic.mac1609_4 	SentPackets 	39
scalar Scenario2.node[177].nic.mac1609_4 	SNIRLostPackets 	37
scalar Scenario2.node[177].nic.mac1609_4 	RXTXLostPackets 	6
scalar Scenario2.node[177].nic.mac1609_4 	TotalLostPackets 	43
scalar Scenario2.node[177].nic.mac1609_4 	DroppedPacketsInMac 	0
scalar Scenario2.node[177].nic.mac1609_4 	TooLittleTime 	0
scalar Scenario2.node[177].nic.mac1609_4 	TimesIntoBackoff 	39
scalar Scenario2.node[177].nic.mac1609_4 	SlotsBackoff 	51
scalar Scenario2.node[177].nic.mac1609_4 	NumInternalContention 	0
scalar Scenario2.node[177].nic.mac1609_4 	totalBusyTime 	0.47499101039
scalar Scenario2.node[177].veinsmobility 	startTime 	22
scalar Scenario2.node[177].veinsmobility 	totalTime 	38
scalar Scenario2.node[177].veinsmobility 	stopTime 	60
scalar Scenario2.node[177].veinsmobility 	minSpeed 	2.2529883940338
scalar Scenario2.node[177].veinsmobility 	maxSpeed 	18.999875641265
scalar Scenario2.node[177].veinsmobility 	totalDistance 	590.43950862395
scalar Scenario2.node[177].veinsmobility 	totalCO2Emission 	156.81212229586
