version 2
run WithoutChSw-TrAD-0-20180208-17:36:29-24721
attr configname WithoutChSw-TrAD
attr datetime 20180208-17:36:29
attr experiment WithoutChSw-TrAD
attr inifile omnetpp.ini
attr iterationvars $0=0.1s
attr iterationvarsf 0.1s-
attr measurement $0=0.1s
attr network Scenario2_SlowSpeed
attr processid 24721
attr repetition 0
attr replication #0
attr resultdir results
attr runnumber 0
attr seedset 0
param **.coreDebug false
param **.debug false
param *.**.nic.mac1609_4.bitrate 6Mbps
param *.**.nic.mac1609_4.txPower 20mW
param *.**.nic.mac1609_4.useServiceChannel false
param *.**.nic.phy80211p.analogueModels "xmldoc(\"config.xml\")"
param *.**.nic.phy80211p.antenna "xmldoc(\"antenna.xml\", \"/root/Antenna[@id='monopole']\")"
param *.**.nic.phy80211p.collectCollisionStatistics true
param *.**.nic.phy80211p.decider "xmldoc(\"config.xml\")"
param *.**.nic.phy80211p.sensitivity -89dBm
param *.**.nic.phy80211p.thermalNoise -110dBm
param *.**.nic.phy80211p.usePropagationDelay true
param *.**.nic.phy80211p.useThermalNoise true
param *.annotations.draw true
param *.connectionManager.drawMaxIntfDist false
param *.connectionManager.maxInterfDist 2600m
param *.connectionManager.sendDirect true
param *.manager.autoShutdown true
param *.manager.host "\"localhost\""
param *.manager.launchConfig "xmldoc(\"mycross.launchd.xml\")"
param *.manager.port 9999
param *.manager.updateInterval 1s
param *.node[*].appl.TrAD true
param *.node[*].appl.TrAD_Neig 25
param *.node[*].appl.TrAD_R 366
param *.node[*].appl.TrAD_alpha 10
param *.node[*].appl.TrAD_ti 0.005
param *.node[*].appl.beaconInterval 1s
param *.node[*].appl.dataOnSch false
param *.node[*].appl.headerLength "80 bit"
param *.node[*].appl.sendBeacons true
param *.node[*].applType "\"myWaveAppLayer\""
param *.node[*].veinsmobility.x 0
param *.node[*].veinsmobility.y 0
param *.node[*].veinsmobility.z 1.895
param *.node[*].veinsmobilityType.debug true
param *.node[20].appl.Accident_start 30
param *.node[40].veinsmobility.accidentCount 1
param *.node[40].veinsmobility.accidentDuration 40s
param *.node[40].veinsmobility.accidentStart 30s
param *.obstacles.debug false
param *.playgroundSizeX 2500m
param *.playgroundSizeY 2500m
param *.playgroundSizeZ 50m
param *.rsu[*].appl.beaconInterval 0.1s
param *.rsu[*].appl.beaconUserPriority 7
param *.rsu[*].appl.dataOnSch false
param *.rsu[*].appl.dataUserPriority 5
param *.rsu[*].appl.headerLength "80 bit"
param *.rsu[*].appl.sendBeacons false
param *.rsu[*].applType "\"TraCIDemoRSU11p\""
param *.rsu[0].mobility.x 500
param *.rsu[0].mobility.y 500
param *.rsu[0].mobility.z 3

scalar Scenario2_SlowSpeed.node[0].appl 	generatedWSMs 	1
scalar Scenario2_SlowSpeed.node[0].appl 	receivedWSMs 	15
scalar Scenario2_SlowSpeed.node[0].appl 	generatedBSMs 	590
scalar Scenario2_SlowSpeed.node[0].appl 	receivedBSMs 	85638
scalar Scenario2_SlowSpeed.node[0].appl 	generatedWSAs 	0
scalar Scenario2_SlowSpeed.node[0].appl 	receivedWSAs 	0
scalar Scenario2_SlowSpeed.node[0].appl 	delayWSM 	0.000240349278
scalar Scenario2_SlowSpeed.node[0].appl 	Dist_Propa 	192.6145003466
scalar Scenario2_SlowSpeed.node[0].nic.phy80211p 	busyTime 	0.16456474576299
scalar Scenario2_SlowSpeed.node[0].nic.phy80211p 	ncollisions 	3140
scalar Scenario2_SlowSpeed.node[0].nic.mac1609_4 	ReceivedUnicastPackets 	0
scalar Scenario2_SlowSpeed.node[0].nic.mac1609_4 	ReceivedBroadcasts 	85653
scalar Scenario2_SlowSpeed.node[0].nic.mac1609_4 	SentPackets 	591
scalar Scenario2_SlowSpeed.node[0].nic.mac1609_4 	SNIRLostPackets 	7552
scalar Scenario2_SlowSpeed.node[0].nic.mac1609_4 	RXTXLostPackets 	67
scalar Scenario2_SlowSpeed.node[0].nic.mac1609_4 	TotalLostPackets 	7619
scalar Scenario2_SlowSpeed.node[0].nic.mac1609_4 	DroppedPacketsInMac 	0
scalar Scenario2_SlowSpeed.node[0].nic.mac1609_4 	TooLittleTime 	0
scalar Scenario2_SlowSpeed.node[0].nic.mac1609_4 	TimesIntoBackoff 	591
scalar Scenario2_SlowSpeed.node[0].nic.mac1609_4 	SlotsBackoff 	890
scalar Scenario2_SlowSpeed.node[0].nic.mac1609_4 	NumInternalContention 	0
scalar Scenario2_SlowSpeed.node[0].nic.mac1609_4 	totalBusyTime 	9.29942024539
scalar Scenario2_SlowSpeed.node[0].veinsmobility 	startTime 	1
scalar Scenario2_SlowSpeed.node[0].veinsmobility 	totalTime 	59
scalar Scenario2_SlowSpeed.node[0].veinsmobility 	stopTime 	60
scalar Scenario2_SlowSpeed.node[0].veinsmobility 	minSpeed 	4.0518554631622
scalar Scenario2_SlowSpeed.node[0].veinsmobility 	maxSpeed 	7.9879484311235
scalar Scenario2_SlowSpeed.node[0].veinsmobility 	totalDistance 	458.12904075632
scalar Scenario2_SlowSpeed.node[0].veinsmobility 	totalCO2Emission 	95.192546388852
scalar Scenario2_SlowSpeed.node[1].appl 	generatedWSMs 	1
scalar Scenario2_SlowSpeed.node[1].appl 	receivedWSMs 	15
scalar Scenario2_SlowSpeed.node[1].appl 	generatedBSMs 	590
scalar Scenario2_SlowSpeed.node[1].appl 	receivedBSMs 	83631
scalar Scenario2_SlowSpeed.node[1].appl 	generatedWSAs 	0
scalar Scenario2_SlowSpeed.node[1].appl 	receivedWSAs 	0
scalar Scenario2_SlowSpeed.node[1].appl 	delayWSM 	0.000240426294
scalar Scenario2_SlowSpeed.node[1].appl 	Dist_Propa 	169.14386154185
scalar Scenario2_SlowSpeed.node[1].nic.phy80211p 	busyTime 	0.16051837288162
scalar Scenario2_SlowSpeed.node[1].nic.phy80211p 	ncollisions 	3048
scalar Scenario2_SlowSpeed.node[1].nic.mac1609_4 	ReceivedUnicastPackets 	0
scalar Scenario2_SlowSpeed.node[1].nic.mac1609_4 	ReceivedBroadcasts 	83646
scalar Scenario2_SlowSpeed.node[1].nic.mac1609_4 	SentPackets 	591
scalar Scenario2_SlowSpeed.node[1].nic.mac1609_4 	SNIRLostPackets 	7261
scalar Scenario2_SlowSpeed.node[1].nic.mac1609_4 	RXTXLostPackets 	67
scalar Scenario2_SlowSpeed.node[1].nic.mac1609_4 	TotalLostPackets 	7328
scalar Scenario2_SlowSpeed.node[1].nic.mac1609_4 	DroppedPacketsInMac 	0
scalar Scenario2_SlowSpeed.node[1].nic.mac1609_4 	TooLittleTime 	0
scalar Scenario2_SlowSpeed.node[1].nic.mac1609_4 	TimesIntoBackoff 	591
scalar Scenario2_SlowSpeed.node[1].nic.mac1609_4 	SlotsBackoff 	857
scalar Scenario2_SlowSpeed.node[1].nic.mac1609_4 	NumInternalContention 	0
scalar Scenario2_SlowSpeed.node[1].nic.mac1609_4 	totalBusyTime 	9.090331364367
scalar Scenario2_SlowSpeed.node[1].veinsmobility 	startTime 	1
scalar Scenario2_SlowSpeed.node[1].veinsmobility 	totalTime 	59
scalar Scenario2_SlowSpeed.node[1].veinsmobility 	stopTime 	60
scalar Scenario2_SlowSpeed.node[1].veinsmobility 	minSpeed 	3.7822135175928
scalar Scenario2_SlowSpeed.node[1].veinsmobility 	maxSpeed 	7.9984821532085
scalar Scenario2_SlowSpeed.node[1].veinsmobility 	totalDistance 	459.98091866
scalar Scenario2_SlowSpeed.node[1].veinsmobility 	totalCO2Emission 	95.948474722952
scalar Scenario2_SlowSpeed.node[2].appl 	generatedWSMs 	1
scalar Scenario2_SlowSpeed.node[2].appl 	receivedWSMs 	15
scalar Scenario2_SlowSpeed.node[2].appl 	generatedBSMs 	590
scalar Scenario2_SlowSpeed.node[2].appl 	receivedBSMs 	67727
scalar Scenario2_SlowSpeed.node[2].appl 	generatedWSAs 	0
scalar Scenario2_SlowSpeed.node[2].appl 	receivedWSAs 	0
scalar Scenario2_SlowSpeed.node[2].appl 	delayWSM 	0.000240809447
scalar Scenario2_SlowSpeed.node[2].appl 	Dist_Propa 	54.708573610511
scalar Scenario2_SlowSpeed.node[2].nic.phy80211p 	busyTime 	0.12681572881372
scalar Scenario2_SlowSpeed.node[2].nic.phy80211p 	ncollisions 	2301
scalar Scenario2_SlowSpeed.node[2].nic.mac1609_4 	ReceivedUnicastPackets 	0
scalar Scenario2_SlowSpeed.node[2].nic.mac1609_4 	ReceivedBroadcasts 	67742
scalar Scenario2_SlowSpeed.node[2].nic.mac1609_4 	SentPackets 	591
scalar Scenario2_SlowSpeed.node[2].nic.mac1609_4 	SNIRLostPackets 	4092
scalar Scenario2_SlowSpeed.node[2].nic.mac1609_4 	RXTXLostPackets 	262
scalar Scenario2_SlowSpeed.node[2].nic.mac1609_4 	TotalLostPackets 	4354
scalar Scenario2_SlowSpeed.node[2].nic.mac1609_4 	DroppedPacketsInMac 	0
scalar Scenario2_SlowSpeed.node[2].nic.mac1609_4 	TooLittleTime 	0
scalar Scenario2_SlowSpeed.node[2].nic.mac1609_4 	TimesIntoBackoff 	907
scalar Scenario2_SlowSpeed.node[2].nic.mac1609_4 	SlotsBackoff 	1358
scalar Scenario2_SlowSpeed.node[2].nic.mac1609_4 	NumInternalContention 	0
scalar Scenario2_SlowSpeed.node[2].nic.mac1609_4 	totalBusyTime 	7.348959872451
scalar Scenario2_SlowSpeed.node[2].veinsmobility 	startTime 	1
scalar Scenario2_SlowSpeed.node[2].veinsmobility 	totalTime 	59
scalar Scenario2_SlowSpeed.node[2].veinsmobility 	stopTime 	60
scalar Scenario2_SlowSpeed.node[2].veinsmobility 	minSpeed 	3.897912896338
scalar Scenario2_SlowSpeed.node[2].veinsmobility 	maxSpeed 	7.9983026179066
scalar Scenario2_SlowSpeed.node[2].veinsmobility 	totalDistance 	456.31984322273
scalar Scenario2_SlowSpeed.node[2].veinsmobility 	totalCO2Emission 	97.560120482686
scalar Scenario2_SlowSpeed.node[114].appl 	generatedWSMs 	1
scalar Scenario2_SlowSpeed.node[114].appl 	receivedWSMs 	7
scalar Scenario2_SlowSpeed.node[114].appl 	generatedBSMs 	490
scalar Scenario2_SlowSpeed.node[114].appl 	receivedBSMs 	71414
scalar Scenario2_SlowSpeed.node[114].appl 	generatedWSAs 	0
scalar Scenario2_SlowSpeed.node[114].appl 	receivedWSAs 	0
scalar Scenario2_SlowSpeed.node[114].appl 	delayWSM 	0.000239872889
scalar Scenario2_SlowSpeed.node[114].appl 	Dist_Propa 	524.22809643052
scalar Scenario2_SlowSpeed.node[114].nic.phy80211p 	busyTime 	0.16410726530635
scalar Scenario2_SlowSpeed.node[114].nic.phy80211p 	ncollisions 	2702
scalar Scenario2_SlowSpeed.node[114].nic.mac1609_4 	ReceivedUnicastPackets 	0
scalar Scenario2_SlowSpeed.node[114].nic.mac1609_4 	ReceivedBroadcasts 	71421
scalar Scenario2_SlowSpeed.node[114].nic.mac1609_4 	SentPackets 	491
scalar Scenario2_SlowSpeed.node[114].nic.mac1609_4 	SNIRLostPackets 	5772
scalar Scenario2_SlowSpeed.node[114].nic.mac1609_4 	RXTXLostPackets 	62
scalar Scenario2_SlowSpeed.node[114].nic.mac1609_4 	TotalLostPackets 	5834
scalar Scenario2_SlowSpeed.node[114].nic.mac1609_4 	DroppedPacketsInMac 	0
scalar Scenario2_SlowSpeed.node[114].nic.mac1609_4 	TooLittleTime 	0
scalar Scenario2_SlowSpeed.node[114].nic.mac1609_4 	TimesIntoBackoff 	491
scalar Scenario2_SlowSpeed.node[114].nic.mac1609_4 	SlotsBackoff 	738
scalar Scenario2_SlowSpeed.node[114].nic.mac1609_4 	NumInternalContention 	0
scalar Scenario2_SlowSpeed.node[114].nic.mac1609_4 	totalBusyTime 	7.762175531256
scalar Scenario2_SlowSpeed.node[114].veinsmobility 	startTime 	11
scalar Scenario2_SlowSpeed.node[114].veinsmobility 	totalTime 	49
scalar Scenario2_SlowSpeed.node[114].veinsmobility 	stopTime 	60
scalar Scenario2_SlowSpeed.node[114].veinsmobility 	minSpeed 	2.3009286735916
scalar Scenario2_SlowSpeed.node[114].veinsmobility 	maxSpeed 	7.9973298779479
scalar Scenario2_SlowSpeed.node[114].veinsmobility 	totalDistance 	321.77978262127
scalar Scenario2_SlowSpeed.node[114].veinsmobility 	totalCO2Emission 	80.37773906376
scalar Scenario2_SlowSpeed.node[47].appl 	generatedWSMs 	1
scalar Scenario2_SlowSpeed.node[47].appl 	receivedWSMs 	16
scalar Scenario2_SlowSpeed.node[47].appl 	generatedBSMs 	580
scalar Scenario2_SlowSpeed.node[47].appl 	receivedBSMs 	65816
scalar Scenario2_SlowSpeed.node[47].appl 	generatedWSAs 	0
scalar Scenario2_SlowSpeed.node[47].appl 	receivedWSAs 	0
scalar Scenario2_SlowSpeed.node[47].appl 	delayWSM 	0.000532166967
scalar Scenario2_SlowSpeed.node[47].appl 	Dist_Propa 	493.33928394569
scalar Scenario2_SlowSpeed.node[47].nic.phy80211p 	busyTime 	0.13356262068984
scalar Scenario2_SlowSpeed.node[47].nic.phy80211p 	ncollisions 	4554
scalar Scenario2_SlowSpeed.node[47].nic.mac1609_4 	ReceivedUnicastPackets 	0
scalar Scenario2_SlowSpeed.node[47].nic.mac1609_4 	ReceivedBroadcasts 	65832
scalar Scenario2_SlowSpeed.node[47].nic.mac1609_4 	SentPackets 	581
scalar Scenario2_SlowSpeed.node[47].nic.mac1609_4 	SNIRLostPackets 	8469
scalar Scenario2_SlowSpeed.node[47].nic.mac1609_4 	RXTXLostPackets 	0
scalar Scenario2_SlowSpeed.node[47].nic.mac1609_4 	TotalLostPackets 	8469
scalar Scenario2_SlowSpeed.node[47].nic.mac1609_4 	DroppedPacketsInMac 	0
scalar Scenario2_SlowSpeed.node[47].nic.mac1609_4 	TooLittleTime 	0
scalar Scenario2_SlowSpeed.node[47].nic.mac1609_4 	TimesIntoBackoff 	581
scalar Scenario2_SlowSpeed.node[47].nic.mac1609_4 	SlotsBackoff 	893
scalar Scenario2_SlowSpeed.node[47].nic.mac1609_4 	NumInternalContention 	0
scalar Scenario2_SlowSpeed.node[47].nic.mac1609_4 	totalBusyTime 	7.383840068233
scalar Scenario2_SlowSpeed.node[47].veinsmobility 	startTime 	2
scalar Scenario2_SlowSpeed.node[47].veinsmobility 	totalTime 	58
scalar Scenario2_SlowSpeed.node[47].veinsmobility 	stopTime 	60
scalar Scenario2_SlowSpeed.node[47].veinsmobility 	minSpeed 	0.43421228121151
scalar Scenario2_SlowSpeed.node[47].veinsmobility 	maxSpeed 	7.9955997145083
scalar Scenario2_SlowSpeed.node[47].veinsmobility 	totalDistance 	269.97887236943
scalar Scenario2_SlowSpeed.node[47].veinsmobility 	totalCO2Emission 	88.936329389505
scalar Scenario2_SlowSpeed.node[116].appl 	generatedWSMs 	1
scalar Scenario2_SlowSpeed.node[116].appl 	receivedWSMs 	14
scalar Scenario2_SlowSpeed.node[116].appl 	generatedBSMs 	480
scalar Scenario2_SlowSpeed.node[116].appl 	receivedBSMs 	83057
scalar Scenario2_SlowSpeed.node[116].appl 	generatedWSAs 	0
scalar Scenario2_SlowSpeed.node[116].appl 	receivedWSAs 	0
scalar Scenario2_SlowSpeed.node[116].appl 	delayWSM 	0.000240186162
scalar Scenario2_SlowSpeed.node[116].appl 	Dist_Propa 	5.7098678032681
scalar Scenario2_SlowSpeed.node[116].nic.phy80211p 	busyTime 	0.20314316666702
scalar Scenario2_SlowSpeed.node[116].nic.phy80211p 	ncollisions 	4861
scalar Scenario2_SlowSpeed.node[116].nic.mac1609_4 	ReceivedUnicastPackets 	0
scalar Scenario2_SlowSpeed.node[116].nic.mac1609_4 	ReceivedBroadcasts 	83071
scalar Scenario2_SlowSpeed.node[116].nic.mac1609_4 	SentPackets 	481
scalar Scenario2_SlowSpeed.node[116].nic.mac1609_4 	SNIRLostPackets 	10440
scalar Scenario2_SlowSpeed.node[116].nic.mac1609_4 	RXTXLostPackets 	0
scalar Scenario2_SlowSpeed.node[116].nic.mac1609_4 	TotalLostPackets 	10440
scalar Scenario2_SlowSpeed.node[116].nic.mac1609_4 	DroppedPacketsInMac 	0
scalar Scenario2_SlowSpeed.node[116].nic.mac1609_4 	TooLittleTime 	0
scalar Scenario2_SlowSpeed.node[116].nic.mac1609_4 	TimesIntoBackoff 	482
scalar Scenario2_SlowSpeed.node[116].nic.mac1609_4 	SlotsBackoff 	669
scalar Scenario2_SlowSpeed.node[116].nic.mac1609_4 	NumInternalContention 	0
scalar Scenario2_SlowSpeed.node[116].nic.mac1609_4 	totalBusyTime 	9.198672738249
scalar Scenario2_SlowSpeed.node[116].veinsmobility 	startTime 	12
scalar Scenario2_SlowSpeed.node[116].veinsmobility 	totalTime 	48
scalar Scenario2_SlowSpeed.node[116].veinsmobility 	stopTime 	60
scalar Scenario2_SlowSpeed.node[116].veinsmobility 	minSpeed 	0
scalar Scenario2_SlowSpeed.node[116].veinsmobility 	maxSpeed 	7.9463586301845
scalar Scenario2_SlowSpeed.node[116].veinsmobility 	totalDistance 	102.68309158462
scalar Scenario2_SlowSpeed.node[116].veinsmobility 	totalCO2Emission 	71.995653749705
scalar Scenario2_SlowSpeed.node[117].appl 	generatedWSMs 	1
scalar Scenario2_SlowSpeed.node[117].appl 	receivedWSMs 	16
scalar Scenario2_SlowSpeed.node[117].appl 	generatedBSMs 	480
scalar Scenario2_SlowSpeed.node[117].appl 	receivedBSMs 	64662
scalar Scenario2_SlowSpeed.node[117].appl 	generatedWSAs 	0
scalar Scenario2_SlowSpeed.node[117].appl 	receivedWSAs 	0
scalar Scenario2_SlowSpeed.node[117].appl 	delayWSM 	0.000240691379
scalar Scenario2_SlowSpeed.node[117].appl 	Dist_Propa 	92.254631296929
scalar Scenario2_SlowSpeed.node[117].nic.phy80211p 	busyTime 	0.15034933333352
scalar Scenario2_SlowSpeed.node[117].nic.phy80211p 	ncollisions 	2293
scalar Scenario2_SlowSpeed.node[117].nic.mac1609_4 	ReceivedUnicastPackets 	0
scalar Scenario2_SlowSpeed.node[117].nic.mac1609_4 	ReceivedBroadcasts 	64678
scalar Scenario2_SlowSpeed.node[117].nic.mac1609_4 	SentPackets 	481
scalar Scenario2_SlowSpeed.node[117].nic.mac1609_4 	SNIRLostPackets 	4586
scalar Scenario2_SlowSpeed.node[117].nic.mac1609_4 	RXTXLostPackets 	67
scalar Scenario2_SlowSpeed.node[117].nic.mac1609_4 	TotalLostPackets 	4653
scalar Scenario2_SlowSpeed.node[117].nic.mac1609_4 	DroppedPacketsInMac 	0
scalar Scenario2_SlowSpeed.node[117].nic.mac1609_4 	TooLittleTime 	0
scalar Scenario2_SlowSpeed.node[117].nic.mac1609_4 	TimesIntoBackoff 	482
scalar Scenario2_SlowSpeed.node[117].nic.mac1609_4 	SlotsBackoff 	705
scalar Scenario2_SlowSpeed.node[117].nic.mac1609_4 	NumInternalContention 	0
scalar Scenario2_SlowSpeed.node[117].nic.mac1609_4 	totalBusyTime 	7.018178055573
scalar Scenario2_SlowSpeed.node[117].veinsmobility 	startTime 	12
scalar Scenario2_SlowSpeed.node[117].veinsmobility 	totalTime 	48
scalar Scenario2_SlowSpeed.node[117].veinsmobility 	stopTime 	60
scalar Scenario2_SlowSpeed.node[117].veinsmobility 	minSpeed 	2.2556257702139
scalar Scenario2_SlowSpeed.node[117].veinsmobility 	maxSpeed 	7.9959876975743
scalar Scenario2_SlowSpeed.node[117].veinsmobility 	totalDistance 	368.66565924979
scalar Scenario2_SlowSpeed.node[117].veinsmobility 	totalCO2Emission 	80.178280575168
scalar Scenario2_SlowSpeed.node[118].appl 	generatedWSMs 	1
scalar Scenario2_SlowSpeed.node[118].appl 	receivedWSMs 	15
scalar Scenario2_SlowSpeed.node[118].appl 	generatedBSMs 	480
scalar Scenario2_SlowSpeed.node[118].appl 	receivedBSMs 	83670
scalar Scenario2_SlowSpeed.node[118].appl 	generatedWSAs 	0
scalar Scenario2_SlowSpeed.node[118].appl 	receivedWSAs 	0
scalar Scenario2_SlowSpeed.node[118].appl 	delayWSM 	0.000240147225
scalar Scenario2_SlowSpeed.node[118].appl 	Dist_Propa 	8.1384348081569
scalar Scenario2_SlowSpeed.node[118].nic.phy80211p 	busyTime 	0.20405916666702
scalar Scenario2_SlowSpeed.node[118].nic.phy80211p 	ncollisions 	4689
scalar Scenario2_SlowSpeed.node[118].nic.mac1609_4 	ReceivedUnicastPackets 	0
scalar Scenario2_SlowSpeed.node[118].nic.mac1609_4 	ReceivedBroadcasts 	83685
scalar Scenario2_SlowSpeed.node[118].nic.mac1609_4 	SentPackets 	481
scalar Scenario2_SlowSpeed.node[118].nic.mac1609_4 	SNIRLostPackets 	10330
scalar Scenario2_SlowSpeed.node[118].nic.mac1609_4 	RXTXLostPackets 	67
scalar Scenario2_SlowSpeed.node[118].nic.mac1609_4 	TotalLostPackets 	10397
scalar Scenario2_SlowSpeed.node[118].nic.mac1609_4 	DroppedPacketsInMac 	0
scalar Scenario2_SlowSpeed.node[118].nic.mac1609_4 	TooLittleTime 	0
scalar Scenario2_SlowSpeed.node[118].nic.mac1609_4 	TimesIntoBackoff 	481
scalar Scenario2_SlowSpeed.node[118].nic.mac1609_4 	SlotsBackoff 	722
scalar Scenario2_SlowSpeed.node[118].nic.mac1609_4 	NumInternalContention 	0
scalar Scenario2_SlowSpeed.node[118].nic.mac1609_4 	totalBusyTime 	9.244355280055
scalar Scenario2_SlowSpeed.node[118].veinsmobility 	startTime 	12
scalar Scenario2_SlowSpeed.node[118].veinsmobility 	totalTime 	48
scalar Scenario2_SlowSpeed.node[118].veinsmobility 	stopTime 	60
scalar Scenario2_SlowSpeed.node[118].veinsmobility 	minSpeed 	0
scalar Scenario2_SlowSpeed.node[118].veinsmobility 	maxSpeed 	3.1736507565273
scalar Scenario2_SlowSpeed.node[118].veinsmobility 	totalDistance 	43.420892795249
scalar Scenario2_SlowSpeed.node[118].veinsmobility 	totalCO2Emission 	51.512866186797
scalar Scenario2_SlowSpeed.node[119].appl 	generatedWSMs 	1
scalar Scenario2_SlowSpeed.node[119].appl 	receivedWSMs 	15
scalar Scenario2_SlowSpeed.node[119].appl 	generatedBSMs 	480
scalar Scenario2_SlowSpeed.node[119].appl 	receivedBSMs 	83447
scalar Scenario2_SlowSpeed.node[119].appl 	generatedWSAs 	0
scalar Scenario2_SlowSpeed.node[119].appl 	receivedWSAs 	0
scalar Scenario2_SlowSpeed.node[119].appl 	delayWSM 	0.000240095696
scalar Scenario2_SlowSpeed.node[119].appl 	Dist_Propa 	164.58208661551
scalar Scenario2_SlowSpeed.node[119].nic.phy80211p 	busyTime 	0.20361416666702
scalar Scenario2_SlowSpeed.node[119].nic.phy80211p 	ncollisions 	4648
scalar Scenario2_SlowSpeed.node[119].nic.mac1609_4 	ReceivedUnicastPackets 	0
scalar Scenario2_SlowSpeed.node[119].nic.mac1609_4 	ReceivedBroadcasts 	83462
scalar Scenario2_SlowSpeed.node[119].nic.mac1609_4 	SentPackets 	481
scalar Scenario2_SlowSpeed.node[119].nic.mac1609_4 	SNIRLostPackets 	10323
scalar Scenario2_SlowSpeed.node[119].nic.mac1609_4 	RXTXLostPackets 	47
scalar Scenario2_SlowSpeed.node[119].nic.mac1609_4 	TotalLostPackets 	10370
scalar Scenario2_SlowSpeed.node[119].nic.mac1609_4 	DroppedPacketsInMac 	0
scalar Scenario2_SlowSpeed.node[119].nic.mac1609_4 	TooLittleTime 	0
scalar Scenario2_SlowSpeed.node[119].nic.mac1609_4 	TimesIntoBackoff 	481
scalar Scenario2_SlowSpeed.node[119].nic.mac1609_4 	SlotsBackoff 	715
scalar Scenario2_SlowSpeed.node[119].nic.mac1609_4 	NumInternalContention 	0
scalar Scenario2_SlowSpeed.node[119].nic.mac1609_4 	totalBusyTime 	9.216513740964
scalar Scenario2_SlowSpeed.node[119].veinsmobility 	startTime 	12
scalar Scenario2_SlowSpeed.node[119].veinsmobility 	totalTime 	48
scalar Scenario2_SlowSpeed.node[119].veinsmobility 	stopTime 	60
scalar Scenario2_SlowSpeed.node[119].veinsmobility 	minSpeed 	0
scalar Scenario2_SlowSpeed.node[119].veinsmobility 	maxSpeed 	7.5214978709393
scalar Scenario2_SlowSpeed.node[119].veinsmobility 	totalDistance 	158.65069089756
scalar Scenario2_SlowSpeed.node[119].veinsmobility 	totalCO2Emission 	72.648978275518
scalar Scenario2_SlowSpeed.node[120].appl 	generatedWSMs 	1
scalar Scenario2_SlowSpeed.node[120].appl 	receivedWSMs 	15
scalar Scenario2_SlowSpeed.node[120].appl 	generatedBSMs 	480
scalar Scenario2_SlowSpeed.node[120].appl 	receivedBSMs 	72456
scalar Scenario2_SlowSpeed.node[120].appl 	generatedWSAs 	0
scalar Scenario2_SlowSpeed.node[120].appl 	receivedWSAs 	0
scalar Scenario2_SlowSpeed.node[120].appl 	delayWSM 	0.00024051686
scalar Scenario2_SlowSpeed.node[120].appl 	Dist_Propa 	130.04691040335
scalar Scenario2_SlowSpeed.node[120].nic.phy80211p 	busyTime 	0.17001866666691
scalar Scenario2_SlowSpeed.node[120].nic.phy80211p 	ncollisions 	2551
scalar Scenario2_SlowSpeed.node[120].nic.mac1609_4 	ReceivedUnicastPackets 	0
scalar Scenario2_SlowSpeed.node[120].nic.mac1609_4 	ReceivedBroadcasts 	72471
scalar Scenario2_SlowSpeed.node[120].nic.mac1609_4 	SentPackets 	481
scalar Scenario2_SlowSpeed.node[120].nic.mac1609_4 	SNIRLostPackets 	5827
scalar Scenario2_SlowSpeed.node[120].nic.mac1609_4 	RXTXLostPackets 	181
scalar Scenario2_SlowSpeed.node[120].nic.mac1609_4 	TotalLostPackets 	6008
scalar Scenario2_SlowSpeed.node[120].nic.mac1609_4 	DroppedPacketsInMac 	0
scalar Scenario2_SlowSpeed.node[120].nic.mac1609_4 	TooLittleTime 	0
scalar Scenario2_SlowSpeed.node[120].nic.mac1609_4 	TimesIntoBackoff 	539
scalar Scenario2_SlowSpeed.node[120].nic.mac1609_4 	SlotsBackoff 	863
scalar Scenario2_SlowSpeed.node[120].nic.mac1609_4 	NumInternalContention 	0
scalar Scenario2_SlowSpeed.node[120].nic.mac1609_4 	totalBusyTime 	7.855484364128
scalar Scenario2_SlowSpeed.node[120].veinsmobility 	startTime 	12
scalar Scenario2_SlowSpeed.node[120].veinsmobility 	totalTime 	48
scalar Scenario2_SlowSpeed.node[120].veinsmobility 	stopTime 	60
scalar Scenario2_SlowSpeed.node[120].veinsmobility 	minSpeed 	0
scalar Scenario2_SlowSpeed.node[120].veinsmobility 	maxSpeed 	7.9987261597696
scalar Scenario2_SlowSpeed.node[120].veinsmobility 	totalDistance 	306.00941850167
scalar Scenario2_SlowSpeed.node[120].veinsmobility 	totalCO2Emission 	77.79440106094
scalar Scenario2_SlowSpeed.node[121].appl 	generatedWSMs 	1
scalar Scenario2_SlowSpeed.node[121].appl 	receivedWSMs 	15
scalar Scenario2_SlowSpeed.node[121].appl 	generatedBSMs 	480
scalar Scenario2_SlowSpeed.node[121].appl 	receivedBSMs 	83064
scalar Scenario2_SlowSpeed.node[121].appl 	generatedWSAs 	0
scalar Scenario2_SlowSpeed.node[121].appl 	receivedWSAs 	0
scalar Scenario2_SlowSpeed.node[121].appl 	delayWSM 	0.000240209742
scalar Scenario2_SlowSpeed.node[121].appl 	Dist_Propa 	0.91853996880292
scalar Scenario2_SlowSpeed.node[121].nic.phy80211p 	busyTime 	0.20261783333368
scalar Scenario2_SlowSpeed.node[121].nic.phy80211p 	ncollisions 	4765
scalar Scenario2_SlowSpeed.node[121].nic.mac1609_4 	ReceivedUnicastPackets 	0
scalar Scenario2_SlowSpeed.node[121].nic.mac1609_4 	ReceivedBroadcasts 	83079
scalar Scenario2_SlowSpeed.node[121].nic.mac1609_4 	SentPackets 	481
scalar Scenario2_SlowSpeed.node[121].nic.mac1609_4 	SNIRLostPackets 	10272
scalar Scenario2_SlowSpeed.node[121].nic.mac1609_4 	RXTXLostPackets 	70
scalar Scenario2_SlowSpeed.node[121].nic.mac1609_4 	TotalLostPackets 	10342
scalar Scenario2_SlowSpeed.node[121].nic.mac1609_4 	DroppedPacketsInMac 	0
scalar Scenario2_SlowSpeed.node[121].nic.mac1609_4 	TooLittleTime 	0
scalar Scenario2_SlowSpeed.node[121].nic.mac1609_4 	TimesIntoBackoff 	481
scalar Scenario2_SlowSpeed.node[121].nic.mac1609_4 	SlotsBackoff 	739
scalar Scenario2_SlowSpeed.node[121].nic.mac1609_4 	NumInternalContention 	0
scalar Scenario2_SlowSpeed.node[121].nic.mac1609_4 	totalBusyTime 	9.188845360637
scalar Scenario2_SlowSpeed.node[121].veinsmobility 	startTime 	12
scalar Scenario2_SlowSpeed.node[121].veinsmobility 	totalTime 	48
scalar Scenario2_SlowSpeed.node[121].veinsmobility 	stopTime 	60
scalar Scenario2_SlowSpeed.node[121].veinsmobility 	minSpeed 	0
scalar Scenario2_SlowSpeed.node[121].veinsmobility 	maxSpeed 	5.9950294753779
scalar Scenario2_SlowSpeed.node[121].veinsmobility 	totalDistance 	55.58751005008
scalar Scenario2_SlowSpeed.node[121].veinsmobility 	totalCO2Emission 	56.867888377594
scalar Scenario2_SlowSpeed.node[122].appl 	generatedWSMs 	1
scalar Scenario2_SlowSpeed.node[122].appl 	receivedWSMs 	7
scalar Scenario2_SlowSpeed.node[122].appl 	generatedBSMs 	480
scalar Scenario2_SlowSpeed.node[122].appl 	receivedBSMs 	68426
scalar Scenario2_SlowSpeed.node[122].appl 	generatedWSAs 	0
scalar Scenario2_SlowSpeed.node[122].appl 	receivedWSAs 	0
scalar Scenario2_SlowSpeed.node[122].appl 	delayWSM 	0.00023993153
scalar Scenario2_SlowSpeed.node[122].appl 	Dist_Propa 	486.35621942341
scalar Scenario2_SlowSpeed.node[122].nic.phy80211p 	busyTime 	0.15957916666688
scalar Scenario2_SlowSpeed.node[122].nic.phy80211p 	ncollisions 	2401
scalar Scenario2_SlowSpeed.node[122].nic.mac1609_4 	ReceivedUnicastPackets 	0
scalar Scenario2_SlowSpeed.node[122].nic.mac1609_4 	ReceivedBroadcasts 	68433
scalar Scenario2_SlowSpeed.node[122].nic.mac1609_4 	SentPackets 	481
scalar Scenario2_SlowSpeed.node[122].nic.mac1609_4 	SNIRLostPackets 	5102
scalar Scenario2_SlowSpeed.node[122].nic.mac1609_4 	RXTXLostPackets 	62
scalar Scenario2_SlowSpeed.node[122].nic.mac1609_4 	TotalLostPackets 	5164
scalar Scenario2_SlowSpeed.node[122].nic.mac1609_4 	DroppedPacketsInMac 	0
scalar Scenario2_SlowSpeed.node[122].nic.mac1609_4 	TooLittleTime 	0
scalar Scenario2_SlowSpeed.node[122].nic.mac1609_4 	TimesIntoBackoff 	481
scalar Scenario2_SlowSpeed.node[122].nic.mac1609_4 	SlotsBackoff 	731
scalar Scenario2_SlowSpeed.node[122].nic.mac1609_4 	NumInternalContention 	0
scalar Scenario2_SlowSpeed.node[122].nic.mac1609_4 	totalBusyTime 	7.418756373888
scalar Scenario2_SlowSpeed.node[122].veinsmobility 	startTime 	12
scalar Scenario2_SlowSpeed.node[122].veinsmobility 	totalTime 	48
scalar Scenario2_SlowSpeed.node[122].veinsmobility 	stopTime 	60
scalar Scenario2_SlowSpeed.node[122].veinsmobility 	minSpeed 	2.3163714007131
scalar Scenario2_SlowSpeed.node[122].veinsmobility 	maxSpeed 	7.9966131793428
scalar Scenario2_SlowSpeed.node[122].veinsmobility 	totalDistance 	325.23235649607
scalar Scenario2_SlowSpeed.node[122].veinsmobility 	totalCO2Emission 	79.1678921284
scalar Scenario2_SlowSpeed.node[123].appl 	generatedWSMs 	1
scalar Scenario2_SlowSpeed.node[123].appl 	receivedWSMs 	15
scalar Scenario2_SlowSpeed.node[123].appl 	generatedBSMs 	480
scalar Scenario2_SlowSpeed.node[123].appl 	receivedBSMs 	76078
scalar Scenario2_SlowSpeed.node[123].appl 	generatedWSAs 	0
scalar Scenario2_SlowSpeed.node[123].appl 	receivedWSAs 	0
scalar Scenario2_SlowSpeed.node[123].appl 	delayWSM 	0.000240410946
scalar Scenario2_SlowSpeed.node[123].appl 	Dist_Propa 	136.11963409802
scalar Scenario2_SlowSpeed.node[123].nic.phy80211p 	busyTime 	0.18017033333361
scalar Scenario2_SlowSpeed.node[123].nic.phy80211p 	ncollisions 	2934
scalar Scenario2_SlowSpeed.node[123].nic.mac1609_4 	ReceivedUnicastPackets 	0
scalar Scenario2_SlowSpeed.node[123].nic.mac1609_4 	ReceivedBroadcasts 	76093
scalar Scenario2_SlowSpeed.node[123].nic.mac1609_4 	SentPackets 	481
scalar Scenario2_SlowSpeed.node[123].nic.mac1609_4 	SNIRLostPackets 	6905
scalar Scenario2_SlowSpeed.node[123].nic.mac1609_4 	RXTXLostPackets 	67
scalar Scenario2_SlowSpeed.node[123].nic.mac1609_4 	TotalLostPackets 	6972
scalar Scenario2_SlowSpeed.node[123].nic.mac1609_4 	DroppedPacketsInMac 	0
scalar Scenario2_SlowSpeed.node[123].nic.mac1609_4 	TooLittleTime 	0
scalar Scenario2_SlowSpeed.node[123].nic.mac1609_4 	TimesIntoBackoff 	481
scalar Scenario2_SlowSpeed.node[123].nic.mac1609_4 	SlotsBackoff 	737
scalar Scenario2_SlowSpeed.node[123].nic.mac1609_4 	NumInternalContention 	0
scalar Scenario2_SlowSpeed.node[123].nic.mac1609_4 	totalBusyTime 	8.281416275769
scalar Scenario2_SlowSpeed.node[123].veinsmobility 	startTime 	12
scalar Scenario2_SlowSpeed.node[123].veinsmobility 	totalTime 	48
scalar Scenario2_SlowSpeed.node[123].veinsmobility 	stopTime 	60
scalar Scenario2_SlowSpeed.node[123].veinsmobility 	minSpeed 	0.44657248678937
scalar Scenario2_SlowSpeed.node[123].veinsmobility 	maxSpeed 	7.9940120015526
scalar Scenario2_SlowSpeed.node[123].veinsmobility 	totalDistance 	281.60598899159
scalar Scenario2_SlowSpeed.node[123].veinsmobility 	totalCO2Emission 	75.439288735697
scalar Scenario2_SlowSpeed.node[3].appl 	generatedWSMs 	1
scalar Scenario2_SlowSpeed.node[3].appl 	receivedWSMs 	9
scalar Scenario2_SlowSpeed.node[3].appl 	generatedBSMs 	590
scalar Scenario2_SlowSpeed.node[3].appl 	receivedBSMs 	86836
scalar Scenario2_SlowSpeed.node[3].appl 	generatedWSAs 	0
scalar Scenario2_SlowSpeed.node[3].appl 	receivedWSAs 	0
scalar Scenario2_SlowSpeed.node[3].appl 	delayWSM 	0.000239574188
scalar Scenario2_SlowSpeed.node[3].appl 	Dist_Propa 	425.20630996518
scalar Scenario2_SlowSpeed.node[3].nic.phy80211p 	busyTime 	0.16938874576301
scalar Scenario2_SlowSpeed.node[3].nic.phy80211p 	ncollisions 	3813
scalar Scenario2_SlowSpeed.node[3].nic.mac1609_4 	ReceivedUnicastPackets 	0
scalar Scenario2_SlowSpeed.node[3].nic.mac1609_4 	ReceivedBroadcasts 	86845
scalar Scenario2_SlowSpeed.node[3].nic.mac1609_4 	SentPackets 	591
scalar Scenario2_SlowSpeed.node[3].nic.mac1609_4 	SNIRLostPackets 	9093
scalar Scenario2_SlowSpeed.node[3].nic.mac1609_4 	RXTXLostPackets 	62
scalar Scenario2_SlowSpeed.node[3].nic.mac1609_4 	TotalLostPackets 	9155
scalar Scenario2_SlowSpeed.node[3].nic.mac1609_4 	DroppedPacketsInMac 	0
scalar Scenario2_SlowSpeed.node[3].nic.mac1609_4 	TooLittleTime 	0
scalar Scenario2_SlowSpeed.node[3].nic.mac1609_4 	TimesIntoBackoff 	591
scalar Scenario2_SlowSpeed.node[3].nic.mac1609_4 	SlotsBackoff 	948
scalar Scenario2_SlowSpeed.node[3].nic.mac1609_4 	NumInternalContention 	0
scalar Scenario2_SlowSpeed.node[3].nic.mac1609_4 	totalBusyTime 	9.492697325161
scalar Scenario2_SlowSpeed.node[3].veinsmobility 	startTime 	1
scalar Scenario2_SlowSpeed.node[3].veinsmobility 	totalTime 	59
scalar Scenario2_SlowSpeed.node[3].veinsmobility 	stopTime 	60
scalar Scenario2_SlowSpeed.node[3].veinsmobility 	minSpeed 	0.57513828796073
scalar Scenario2_SlowSpeed.node[3].veinsmobility 	maxSpeed 	7.9971425564191
scalar Scenario2_SlowSpeed.node[3].veinsmobility 	totalDistance 	420.68628332456
scalar Scenario2_SlowSpeed.node[3].veinsmobility 	totalCO2Emission 	90.619815672181
scalar Scenario2_SlowSpeed.node[125].appl 	generatedWSMs 	1
scalar Scenario2_SlowSpeed.node[125].appl 	receivedWSMs 	15
scalar Scenario2_SlowSpeed.node[125].appl 	generatedBSMs 	470
scalar Scenario2_SlowSpeed.node[125].appl 	receivedBSMs 	79243
scalar Scenario2_SlowSpeed.node[125].appl 	generatedWSAs 	0
scalar Scenario2_SlowSpeed.node[125].appl 	receivedWSAs 	0
scalar Scenario2_SlowSpeed.node[125].appl 	delayWSM 	0.000240276098
scalar Scenario2_SlowSpeed.node[125].appl 	Dist_Propa 	58.136094556191
scalar Scenario2_SlowSpeed.node[125].nic.phy80211p 	busyTime 	0.19256476595776
scalar Scenario2_SlowSpeed.node[125].nic.phy80211p 	ncollisions 	3444
scalar Scenario2_SlowSpeed.node[125].nic.mac1609_4 	ReceivedUnicastPackets 	0
scalar Scenario2_SlowSpeed.node[125].nic.mac1609_4 	ReceivedBroadcasts 	79258
scalar Scenario2_SlowSpeed.node[125].nic.mac1609_4 	SentPackets 	471
scalar Scenario2_SlowSpeed.node[125].nic.mac1609_4 	SNIRLostPackets 	7604
scalar Scenario2_SlowSpeed.node[125].nic.mac1609_4 	RXTXLostPackets 	147
scalar Scenario2_SlowSpeed.node[125].nic.mac1609_4 	TotalLostPackets 	7751
scalar Scenario2_SlowSpeed.node[125].nic.mac1609_4 	DroppedPacketsInMac 	0
scalar Scenario2_SlowSpeed.node[125].nic.mac1609_4 	TooLittleTime 	0
scalar Scenario2_SlowSpeed.node[125].nic.mac1609_4 	TimesIntoBackoff 	941
scalar Scenario2_SlowSpeed.node[125].nic.mac1609_4 	SlotsBackoff 	1348
scalar Scenario2_SlowSpeed.node[125].nic.mac1609_4 	NumInternalContention 	0
scalar Scenario2_SlowSpeed.node[125].nic.mac1609_4 	totalBusyTime 	8.653229680204
scalar Scenario2_SlowSpeed.node[125].veinsmobility 	startTime 	13
scalar Scenario2_SlowSpeed.node[125].veinsmobility 	totalTime 	47
scalar Scenario2_SlowSpeed.node[125].veinsmobility 	stopTime 	60
scalar Scenario2_SlowSpeed.node[125].veinsmobility 	minSpeed 	0
scalar Scenario2_SlowSpeed.node[125].veinsmobility 	maxSpeed 	7.9845323955901
scalar Scenario2_SlowSpeed.node[125].veinsmobility 	totalDistance 	233.59019313978
scalar Scenario2_SlowSpeed.node[125].veinsmobility 	totalCO2Emission 	71.512618776055
scalar Scenario2_SlowSpeed.node[126].appl 	generatedWSMs 	1
scalar Scenario2_SlowSpeed.node[126].appl 	receivedWSMs 	14
scalar Scenario2_SlowSpeed.node[126].appl 	generatedBSMs 	470
scalar Scenario2_SlowSpeed.node[126].appl 	receivedBSMs 	82187
scalar Scenario2_SlowSpeed.node[126].appl 	generatedWSAs 	0
scalar Scenario2_SlowSpeed.node[126].appl 	receivedWSAs 	0
scalar Scenario2_SlowSpeed.node[126].appl 	delayWSM 	0.000240185885
scalar Scenario2_SlowSpeed.node[126].appl 	Dist_Propa 	3.3172904895127
scalar Scenario2_SlowSpeed.node[126].nic.phy80211p 	busyTime 	0.20536817021312
scalar Scenario2_SlowSpeed.node[126].nic.phy80211p 	ncollisions 	4748
scalar Scenario2_SlowSpeed.node[126].nic.mac1609_4 	ReceivedUnicastPackets 	0
scalar Scenario2_SlowSpeed.node[126].nic.mac1609_4 	ReceivedBroadcasts 	82201
scalar Scenario2_SlowSpeed.node[126].nic.mac1609_4 	SentPackets 	471
scalar Scenario2_SlowSpeed.node[126].nic.mac1609_4 	SNIRLostPackets 	10361
scalar Scenario2_SlowSpeed.node[126].nic.mac1609_4 	RXTXLostPackets 	0
scalar Scenario2_SlowSpeed.node[126].nic.mac1609_4 	TotalLostPackets 	10361
scalar Scenario2_SlowSpeed.node[126].nic.mac1609_4 	DroppedPacketsInMac 	0
scalar Scenario2_SlowSpeed.node[126].nic.mac1609_4 	TooLittleTime 	0
scalar Scenario2_SlowSpeed.node[126].nic.mac1609_4 	TimesIntoBackoff 	471
scalar Scenario2_SlowSpeed.node[126].nic.mac1609_4 	SlotsBackoff 	717
scalar Scenario2_SlowSpeed.node[126].nic.mac1609_4 	NumInternalContention 	0
scalar Scenario2_SlowSpeed.node[126].nic.mac1609_4 	totalBusyTime 	9.09550001362
scalar Scenario2_SlowSpeed.node[126].veinsmobility 	startTime 	13
scalar Scenario2_SlowSpeed.node[126].veinsmobility 	totalTime 	47
scalar Scenario2_SlowSpeed.node[126].veinsmobility 	stopTime 	60
scalar Scenario2_SlowSpeed.node[126].veinsmobility 	minSpeed 	0
scalar Scenario2_SlowSpeed.node[126].veinsmobility 	maxSpeed 	5.0860990736323
scalar Scenario2_SlowSpeed.node[126].veinsmobility 	totalDistance 	43.367370961873
scalar Scenario2_SlowSpeed.node[126].veinsmobility 	totalCO2Emission 	52.31446185991
scalar Scenario2_SlowSpeed.node[48].appl 	generatedWSMs 	1
scalar Scenario2_SlowSpeed.node[48].appl 	receivedWSMs 	15
scalar Scenario2_SlowSpeed.node[48].appl 	generatedBSMs 	580
scalar Scenario2_SlowSpeed.node[48].appl 	receivedBSMs 	86719
scalar Scenario2_SlowSpeed.node[48].appl 	generatedWSAs 	0
scalar Scenario2_SlowSpeed.node[48].appl 	receivedWSAs 	0
scalar Scenario2_SlowSpeed.node[48].appl 	delayWSM 	0.00024036234
scalar Scenario2_SlowSpeed.node[48].appl 	Dist_Propa 	307.53136748566
scalar Scenario2_SlowSpeed.node[48].nic.phy80211p 	busyTime 	0.17436537931065
scalar Scenario2_SlowSpeed.node[48].nic.phy80211p 	ncollisions 	5020
scalar Scenario2_SlowSpeed.node[48].nic.mac1609_4 	ReceivedUnicastPackets 	0
scalar Scenario2_SlowSpeed.node[48].nic.mac1609_4 	ReceivedBroadcasts 	86734
scalar Scenario2_SlowSpeed.node[48].nic.mac1609_4 	SentPackets 	581
scalar Scenario2_SlowSpeed.node[48].nic.mac1609_4 	SNIRLostPackets 	10347
scalar Scenario2_SlowSpeed.node[48].nic.mac1609_4 	RXTXLostPackets 	67
scalar Scenario2_SlowSpeed.node[48].nic.mac1609_4 	TotalLostPackets 	10414
scalar Scenario2_SlowSpeed.node[48].nic.mac1609_4 	DroppedPacketsInMac 	0
scalar Scenario2_SlowSpeed.node[48].nic.mac1609_4 	TooLittleTime 	0
scalar Scenario2_SlowSpeed.node[48].nic.mac1609_4 	TimesIntoBackoff 	581
scalar Scenario2_SlowSpeed.node[48].nic.mac1609_4 	SlotsBackoff 	809
scalar Scenario2_SlowSpeed.node[48].nic.mac1609_4 	NumInternalContention 	0
scalar Scenario2_SlowSpeed.node[48].nic.mac1609_4 	totalBusyTime 	9.606282150369
scalar Scenario2_SlowSpeed.node[48].veinsmobility 	startTime 	2
scalar Scenario2_SlowSpeed.node[48].veinsmobility 	totalTime 	58
scalar Scenario2_SlowSpeed.node[48].veinsmobility 	stopTime 	60
scalar Scenario2_SlowSpeed.node[48].veinsmobility 	minSpeed 	0.55958808761422
scalar Scenario2_SlowSpeed.node[48].veinsmobility 	maxSpeed 	7.9944861674053
scalar Scenario2_SlowSpeed.node[48].veinsmobility 	totalDistance 	342.53296497592
scalar Scenario2_SlowSpeed.node[48].veinsmobility 	totalCO2Emission 	100.11539423118
scalar Scenario2_SlowSpeed.node[127].appl 	generatedWSMs 	1
scalar Scenario2_SlowSpeed.node[127].appl 	receivedWSMs 	13
scalar Scenario2_SlowSpeed.node[127].appl 	generatedBSMs 	470
scalar Scenario2_SlowSpeed.node[127].appl 	receivedBSMs 	80625
scalar Scenario2_SlowSpeed.node[127].appl 	generatedWSAs 	0
scalar Scenario2_SlowSpeed.node[127].appl 	receivedWSAs 	0
scalar Scenario2_SlowSpeed.node[127].appl 	delayWSM 	0.000239789108
scalar Scenario2_SlowSpeed.node[127].appl 	Dist_Propa 	164.24648445863
scalar Scenario2_SlowSpeed.node[127].nic.phy80211p 	busyTime 	0.19802825531948
scalar Scenario2_SlowSpeed.node[127].nic.phy80211p 	ncollisions 	3971
scalar Scenario2_SlowSpeed.node[127].nic.mac1609_4 	ReceivedUnicastPackets 	0
scalar Scenario2_SlowSpeed.node[127].nic.mac1609_4 	ReceivedBroadcasts 	80638
scalar Scenario2_SlowSpeed.node[127].nic.mac1609_4 	SentPackets 	471
scalar Scenario2_SlowSpeed.node[127].nic.mac1609_4 	SNIRLostPackets 	8666
scalar Scenario2_SlowSpeed.node[127].nic.mac1609_4 	RXTXLostPackets 	47
scalar Scenario2_SlowSpeed.node[127].nic.mac1609_4 	TotalLostPackets 	8713
scalar Scenario2_SlowSpeed.node[127].nic.mac1609_4 	DroppedPacketsInMac 	0
scalar Scenario2_SlowSpeed.node[127].nic.mac1609_4 	TooLittleTime 	0
scalar Scenario2_SlowSpeed.node[127].nic.mac1609_4 	TimesIntoBackoff 	471
scalar Scenario2_SlowSpeed.node[127].nic.mac1609_4 	SlotsBackoff 	670
scalar Scenario2_SlowSpeed.node[127].nic.mac1609_4 	NumInternalContention 	0
scalar Scenario2_SlowSpeed.node[127].nic.mac1609_4 	totalBusyTime 	8.853363279371
scalar Scenario2_SlowSpeed.node[127].veinsmobility 	startTime 	13
scalar Scenario2_SlowSpeed.node[127].veinsmobility 	totalTime 	47
scalar Scenario2_SlowSpeed.node[127].veinsmobility 	stopTime 	60
scalar Scenario2_SlowSpeed.node[127].veinsmobility 	minSpeed 	0
scalar Scenario2_SlowSpeed.node[127].veinsmobility 	maxSpeed 	2.3748881724772
scalar Scenario2_SlowSpeed.node[127].veinsmobility 	totalDistance 	55.327749172271
scalar Scenario2_SlowSpeed.node[127].veinsmobility 	totalCO2Emission 	49.622803009147
scalar Scenario2_SlowSpeed.node[128].appl 	generatedWSMs 	1
scalar Scenario2_SlowSpeed.node[128].appl 	receivedWSMs 	15
scalar Scenario2_SlowSpeed.node[128].appl 	generatedBSMs 	460
scalar Scenario2_SlowSpeed.node[128].appl 	receivedBSMs 	81410
scalar Scenario2_SlowSpeed.node[128].appl 	generatedWSAs 	0
scalar Scenario2_SlowSpeed.node[128].appl 	receivedWSAs 	0
scalar Scenario2_SlowSpeed.node[128].appl 	delayWSM 	0.000240037939
scalar Scenario2_SlowSpeed.node[128].appl 	Dist_Propa 	209.53956101199
scalar Scenario2_SlowSpeed.node[128].nic.phy80211p 	busyTime 	0.20704086956557
scalar Scenario2_SlowSpeed.node[128].nic.phy80211p 	ncollisions 	4398
scalar Scenario2_SlowSpeed.node[128].nic.mac1609_4 	ReceivedUnicastPackets 	0
scalar Scenario2_SlowSpeed.node[128].nic.mac1609_4 	ReceivedBroadcasts 	81425
scalar Scenario2_SlowSpeed.node[128].nic.mac1609_4 	SentPackets 	461
scalar Scenario2_SlowSpeed.node[128].nic.mac1609_4 	SNIRLostPackets 	9960
scalar Scenario2_SlowSpeed.node[128].nic.mac1609_4 	RXTXLostPackets 	47
scalar Scenario2_SlowSpeed.node[128].nic.mac1609_4 	TotalLostPackets 	10007
scalar Scenario2_SlowSpeed.node[128].nic.mac1609_4 	DroppedPacketsInMac 	0
scalar Scenario2_SlowSpeed.node[128].nic.mac1609_4 	TooLittleTime 	0
scalar Scenario2_SlowSpeed.node[128].nic.mac1609_4 	TimesIntoBackoff 	461
scalar Scenario2_SlowSpeed.node[128].nic.mac1609_4 	SlotsBackoff 	674
scalar Scenario2_SlowSpeed.node[128].nic.mac1609_4 	NumInternalContention 	0
scalar Scenario2_SlowSpeed.node[128].nic.mac1609_4 	totalBusyTime 	8.976689939925
scalar Scenario2_SlowSpeed.node[128].veinsmobility 	startTime 	14
scalar Scenario2_SlowSpeed.node[128].veinsmobility 	totalTime 	46
scalar Scenario2_SlowSpeed.node[128].veinsmobility 	stopTime 	60
scalar Scenario2_SlowSpeed.node[128].veinsmobility 	minSpeed 	0.037277266174073
scalar Scenario2_SlowSpeed.node[128].veinsmobility 	maxSpeed 	7.980377191134
scalar Scenario2_SlowSpeed.node[128].veinsmobility 	totalDistance 	138.95664590893
scalar Scenario2_SlowSpeed.node[128].veinsmobility 	totalCO2Emission 	60.32061832808
scalar Scenario2_SlowSpeed.node[129].appl 	generatedWSMs 	1
scalar Scenario2_SlowSpeed.node[129].appl 	receivedWSMs 	8
scalar Scenario2_SlowSpeed.node[129].appl 	generatedBSMs 	460
scalar Scenario2_SlowSpeed.node[129].appl 	receivedBSMs 	76103
scalar Scenario2_SlowSpeed.node[129].appl 	generatedWSAs 	0
scalar Scenario2_SlowSpeed.node[129].appl 	receivedWSAs 	0
scalar Scenario2_SlowSpeed.node[129].appl 	delayWSM 	0.000239547461
scalar Scenario2_SlowSpeed.node[129].appl 	Dist_Propa 	203.20413033237
scalar Scenario2_SlowSpeed.node[129].nic.phy80211p 	busyTime 	0.18699895652202
scalar Scenario2_SlowSpeed.node[129].nic.phy80211p 	ncollisions 	2736
scalar Scenario2_SlowSpeed.node[129].nic.mac1609_4 	ReceivedUnicastPackets 	0
scalar Scenario2_SlowSpeed.node[129].nic.mac1609_4 	ReceivedBroadcasts 	76111
scalar Scenario2_SlowSpeed.node[129].nic.mac1609_4 	SentPackets 	461
scalar Scenario2_SlowSpeed.node[129].nic.mac1609_4 	SNIRLostPackets 	6445
scalar Scenario2_SlowSpeed.node[129].nic.mac1609_4 	RXTXLostPackets 	62
scalar Scenario2_SlowSpeed.node[129].nic.mac1609_4 	TotalLostPackets 	6507
scalar Scenario2_SlowSpeed.node[129].nic.mac1609_4 	DroppedPacketsInMac 	0
scalar Scenario2_SlowSpeed.node[129].nic.mac1609_4 	TooLittleTime 	0
scalar Scenario2_SlowSpeed.node[129].nic.mac1609_4 	TimesIntoBackoff 	461
scalar Scenario2_SlowSpeed.node[129].nic.mac1609_4 	SlotsBackoff 	698
scalar Scenario2_SlowSpeed.node[129].nic.mac1609_4 	NumInternalContention 	0
scalar Scenario2_SlowSpeed.node[129].nic.mac1609_4 	totalBusyTime 	8.250035806231
scalar Scenario2_SlowSpeed.node[129].veinsmobility 	startTime 	14
scalar Scenario2_SlowSpeed.node[129].veinsmobility 	totalTime 	46
scalar Scenario2_SlowSpeed.node[129].veinsmobility 	stopTime 	60
scalar Scenario2_SlowSpeed.node[129].veinsmobility 	minSpeed 	4.552695989943e-14
scalar Scenario2_SlowSpeed.node[129].veinsmobility 	maxSpeed 	6.2170943317923
scalar Scenario2_SlowSpeed.node[129].veinsmobility 	totalDistance 	67.998235003909
scalar Scenario2_SlowSpeed.node[129].veinsmobility 	totalCO2Emission 	54.99878213461
scalar Scenario2_SlowSpeed.node[130].appl 	generatedWSMs 	1
scalar Scenario2_SlowSpeed.node[130].appl 	receivedWSMs 	8
scalar Scenario2_SlowSpeed.node[130].appl 	generatedBSMs 	460
scalar Scenario2_SlowSpeed.node[130].appl 	receivedBSMs 	75867
scalar Scenario2_SlowSpeed.node[130].appl 	generatedWSAs 	0
scalar Scenario2_SlowSpeed.node[130].appl 	receivedWSAs 	0
scalar Scenario2_SlowSpeed.node[130].appl 	delayWSM 	0.000239552007
scalar Scenario2_SlowSpeed.node[130].appl 	Dist_Propa 	238.43128600549
scalar Scenario2_SlowSpeed.node[130].nic.phy80211p 	busyTime 	0.18611217391333
scalar Scenario2_SlowSpeed.node[130].nic.phy80211p 	ncollisions 	2627
scalar Scenario2_SlowSpeed.node[130].nic.mac1609_4 	ReceivedUnicastPackets 	0
scalar Scenario2_SlowSpeed.node[130].nic.mac1609_4 	ReceivedBroadcasts 	75875
scalar Scenario2_SlowSpeed.node[130].nic.mac1609_4 	SentPackets 	461
scalar Scenario2_SlowSpeed.node[130].nic.mac1609_4 	SNIRLostPackets 	6290
scalar Scenario2_SlowSpeed.node[130].nic.mac1609_4 	RXTXLostPackets 	62
scalar Scenario2_SlowSpeed.node[130].nic.mac1609_4 	TotalLostPackets 	6352
scalar Scenario2_SlowSpeed.node[130].nic.mac1609_4 	DroppedPacketsInMac 	0
scalar Scenario2_SlowSpeed.node[130].nic.mac1609_4 	TooLittleTime 	0
scalar Scenario2_SlowSpeed.node[130].nic.mac1609_4 	TimesIntoBackoff 	461
scalar Scenario2_SlowSpeed.node[130].nic.mac1609_4 	SlotsBackoff 	713
scalar Scenario2_SlowSpeed.node[130].nic.mac1609_4 	NumInternalContention 	0
scalar Scenario2_SlowSpeed.node[130].nic.mac1609_4 	totalBusyTime 	8.214153909817
scalar Scenario2_SlowSpeed.node[130].veinsmobility 	startTime 	14
scalar Scenario2_SlowSpeed.node[130].veinsmobility 	totalTime 	46
scalar Scenario2_SlowSpeed.node[130].veinsmobility 	stopTime 	60
scalar Scenario2_SlowSpeed.node[130].veinsmobility 	minSpeed 	0
scalar Scenario2_SlowSpeed.node[130].veinsmobility 	maxSpeed 	6.0183958290253
scalar Scenario2_SlowSpeed.node[130].veinsmobility 	totalDistance 	67.385200339196
scalar Scenario2_SlowSpeed.node[130].veinsmobility 	totalCO2Emission 	55.006745868216
scalar Scenario2_SlowSpeed.node[49].appl 	generatedWSMs 	1
scalar Scenario2_SlowSpeed.node[49].appl 	receivedWSMs 	16
scalar Scenario2_SlowSpeed.node[49].appl 	generatedBSMs 	580
scalar Scenario2_SlowSpeed.node[49].appl 	receivedBSMs 	63702
scalar Scenario2_SlowSpeed.node[49].appl 	generatedWSAs 	0
scalar Scenario2_SlowSpeed.node[49].appl 	receivedWSAs 	0
scalar Scenario2_SlowSpeed.node[49].appl 	delayWSM 	0.000532278021
scalar Scenario2_SlowSpeed.node[49].appl 	Dist_Propa 	524.56923604394
scalar Scenario2_SlowSpeed.node[49].nic.phy80211p 	busyTime 	0.1293201379312
scalar Scenario2_SlowSpeed.node[49].nic.phy80211p 	ncollisions 	4314
scalar Scenario2_SlowSpeed.node[49].nic.mac1609_4 	ReceivedUnicastPackets 	0
scalar Scenario2_SlowSpeed.node[49].nic.mac1609_4 	ReceivedBroadcasts 	63718
scalar Scenario2_SlowSpeed.node[49].nic.mac1609_4 	SentPackets 	581
scalar Scenario2_SlowSpeed.node[49].nic.mac1609_4 	SNIRLostPackets 	8233
scalar Scenario2_SlowSpeed.node[49].nic.mac1609_4 	RXTXLostPackets 	87
scalar Scenario2_SlowSpeed.node[49].nic.mac1609_4 	TotalLostPackets 	8320
scalar Scenario2_SlowSpeed.node[49].nic.mac1609_4 	DroppedPacketsInMac 	0
scalar Scenario2_SlowSpeed.node[49].nic.mac1609_4 	TooLittleTime 	0
scalar Scenario2_SlowSpeed.node[49].nic.mac1609_4 	TimesIntoBackoff 	602
scalar Scenario2_SlowSpeed.node[49].nic.mac1609_4 	SlotsBackoff 	903
scalar Scenario2_SlowSpeed.node[49].nic.mac1609_4 	NumInternalContention 	0
scalar Scenario2_SlowSpeed.node[49].nic.mac1609_4 	totalBusyTime 	7.139022015295
scalar Scenario2_SlowSpeed.node[49].veinsmobility 	startTime 	2
scalar Scenario2_SlowSpeed.node[49].veinsmobility 	totalTime 	58
scalar Scenario2_SlowSpeed.node[49].veinsmobility 	stopTime 	60
scalar Scenario2_SlowSpeed.node[49].veinsmobility 	minSpeed 	4.128183642186
scalar Scenario2_SlowSpeed.node[49].veinsmobility 	maxSpeed 	7.9991118872352
scalar Scenario2_SlowSpeed.node[49].veinsmobility 	totalDistance 	452.07994726397
scalar Scenario2_SlowSpeed.node[49].veinsmobility 	totalCO2Emission 	94.033149115318
scalar Scenario2_SlowSpeed.node[131].appl 	generatedWSMs 	1
scalar Scenario2_SlowSpeed.node[131].appl 	receivedWSMs 	15
scalar Scenario2_SlowSpeed.node[131].appl 	generatedBSMs 	460
scalar Scenario2_SlowSpeed.node[131].appl 	receivedBSMs 	71738
scalar Scenario2_SlowSpeed.node[131].appl 	generatedWSAs 	0
scalar Scenario2_SlowSpeed.node[131].appl 	receivedWSAs 	0
scalar Scenario2_SlowSpeed.node[131].appl 	delayWSM 	0.000240480553
scalar Scenario2_SlowSpeed.node[131].appl 	Dist_Propa 	135.94449745882
scalar Scenario2_SlowSpeed.node[131].nic.phy80211p 	busyTime 	0.17639043478286
scalar Scenario2_SlowSpeed.node[131].nic.phy80211p 	ncollisions 	2610
scalar Scenario2_SlowSpeed.node[131].nic.mac1609_4 	ReceivedUnicastPackets 	0
scalar Scenario2_SlowSpeed.node[131].nic.mac1609_4 	ReceivedBroadcasts 	71753
scalar Scenario2_SlowSpeed.node[131].nic.mac1609_4 	SentPackets 	461
scalar Scenario2_SlowSpeed.node[131].nic.mac1609_4 	SNIRLostPackets 	6112
scalar Scenario2_SlowSpeed.node[131].nic.mac1609_4 	RXTXLostPackets 	67
scalar Scenario2_SlowSpeed.node[131].nic.mac1609_4 	TotalLostPackets 	6179
scalar Scenario2_SlowSpeed.node[131].nic.mac1609_4 	DroppedPacketsInMac 	0
scalar Scenario2_SlowSpeed.node[131].nic.mac1609_4 	TooLittleTime 	0
scalar Scenario2_SlowSpeed.node[131].nic.mac1609_4 	TimesIntoBackoff 	461
scalar Scenario2_SlowSpeed.node[131].nic.mac1609_4 	SlotsBackoff 	680
scalar Scenario2_SlowSpeed.node[131].nic.mac1609_4 	NumInternalContention 	0
scalar Scenario2_SlowSpeed.node[131].nic.mac1609_4 	totalBusyTime 	7.785721261275
scalar Scenario2_SlowSpeed.node[131].veinsmobility 	startTime 	14
scalar Scenario2_SlowSpeed.node[131].veinsmobility 	totalTime 	46
scalar Scenario2_SlowSpeed.node[131].veinsmobility 	stopTime 	60
scalar Scenario2_SlowSpeed.node[131].veinsmobility 	minSpeed 	0.17680583201903
scalar Scenario2_SlowSpeed.node[131].veinsmobility 	maxSpeed 	7.9973660864471
scalar Scenario2_SlowSpeed.node[131].veinsmobility 	totalDistance 	307.83528981071
scalar Scenario2_SlowSpeed.node[131].veinsmobility 	totalCO2Emission 	77.066696235837
scalar Scenario2_SlowSpeed.node[132].appl 	generatedWSMs 	1
scalar Scenario2_SlowSpeed.node[132].appl 	receivedWSMs 	12
scalar Scenario2_SlowSpeed.node[132].appl 	generatedBSMs 	460
scalar Scenario2_SlowSpeed.node[132].appl 	receivedBSMs 	79288
scalar Scenario2_SlowSpeed.node[132].appl 	generatedWSAs 	0
scalar Scenario2_SlowSpeed.node[132].appl 	receivedWSAs 	0
scalar Scenario2_SlowSpeed.node[132].appl 	delayWSM 	0.000239754084
scalar Scenario2_SlowSpeed.node[132].appl 	Dist_Propa 	185.74431930136
scalar Scenario2_SlowSpeed.node[132].nic.phy80211p 	busyTime 	0.19862034782641
scalar Scenario2_SlowSpeed.node[132].nic.phy80211p 	ncollisions 	3799
scalar Scenario2_SlowSpeed.node[132].nic.mac1609_4 	ReceivedUnicastPackets 	0
scalar Scenario2_SlowSpeed.node[132].nic.mac1609_4 	ReceivedBroadcasts 	79300
scalar Scenario2_SlowSpeed.node[132].nic.mac1609_4 	SentPackets 	461
scalar Scenario2_SlowSpeed.node[132].nic.mac1609_4 	SNIRLostPackets 	8363
scalar Scenario2_SlowSpeed.node[132].nic.mac1609_4 	RXTXLostPackets 	47
scalar Scenario2_SlowSpeed.node[132].nic.mac1609_4 	TotalLostPackets 	8410
scalar Scenario2_SlowSpeed.node[132].nic.mac1609_4 	DroppedPacketsInMac 	0
scalar Scenario2_SlowSpeed.node[132].nic.mac1609_4 	TooLittleTime 	0
scalar Scenario2_SlowSpeed.node[132].nic.mac1609_4 	TimesIntoBackoff 	729
scalar Scenario2_SlowSpeed.node[132].nic.mac1609_4 	SlotsBackoff 	1046
scalar Scenario2_SlowSpeed.node[132].nic.mac1609_4 	NumInternalContention 	0
scalar Scenario2_SlowSpeed.node[132].nic.mac1609_4 	totalBusyTime 	8.693944316409
scalar Scenario2_SlowSpeed.node[132].veinsmobility 	startTime 	14
scalar Scenario2_SlowSpeed.node[132].veinsmobility 	totalTime 	46
scalar Scenario2_SlowSpeed.node[132].veinsmobility 	stopTime 	60
scalar Scenario2_SlowSpeed.node[132].veinsmobility 	minSpeed 	0
scalar Scenario2_SlowSpeed.node[132].veinsmobility 	maxSpeed 	3.2867726092964
scalar Scenario2_SlowSpeed.node[132].veinsmobility 	totalDistance 	62.732486327644
scalar Scenario2_SlowSpeed.node[132].veinsmobility 	totalCO2Emission 	49.5032643108
scalar Scenario2_SlowSpeed.node[4].appl 	generatedWSMs 	1
scalar Scenario2_SlowSpeed.node[4].appl 	receivedWSMs 	15
scalar Scenario2_SlowSpeed.node[4].appl 	generatedBSMs 	590
scalar Scenario2_SlowSpeed.node[4].appl 	receivedBSMs 	82140
scalar Scenario2_SlowSpeed.node[4].appl 	generatedWSAs 	0
scalar Scenario2_SlowSpeed.node[4].appl 	receivedWSAs 	0
scalar Scenario2_SlowSpeed.node[4].appl 	delayWSM 	0.00024043776
scalar Scenario2_SlowSpeed.node[4].appl 	Dist_Propa 	206.05420878988
scalar Scenario2_SlowSpeed.node[4].nic.phy80211p 	busyTime 	0.16505966101723
scalar Scenario2_SlowSpeed.node[4].nic.phy80211p 	ncollisions 	5741
scalar Scenario2_SlowSpeed.node[4].nic.mac1609_4 	ReceivedUnicastPackets 	0
scalar Scenario2_SlowSpeed.node[4].nic.mac1609_4 	ReceivedBroadcasts 	82155
scalar Scenario2_SlowSpeed.node[4].nic.mac1609_4 	SentPackets 	591
scalar Scenario2_SlowSpeed.node[4].nic.mac1609_4 	SNIRLostPackets 	11332
scalar Scenario2_SlowSpeed.node[4].nic.mac1609_4 	RXTXLostPackets 	154
scalar Scenario2_SlowSpeed.node[4].nic.mac1609_4 	TotalLostPackets 	11486
scalar Scenario2_SlowSpeed.node[4].nic.mac1609_4 	DroppedPacketsInMac 	0
scalar Scenario2_SlowSpeed.node[4].nic.mac1609_4 	TooLittleTime 	0
scalar Scenario2_SlowSpeed.node[4].nic.mac1609_4 	TimesIntoBackoff 	1151
scalar Scenario2_SlowSpeed.node[4].nic.mac1609_4 	SlotsBackoff 	1738
scalar Scenario2_SlowSpeed.node[4].nic.mac1609_4 	NumInternalContention 	0
scalar Scenario2_SlowSpeed.node[4].nic.mac1609_4 	totalBusyTime 	9.206055231572
scalar Scenario2_SlowSpeed.node[4].veinsmobility 	startTime 	1
scalar Scenario2_SlowSpeed.node[4].veinsmobility 	totalTime 	59
scalar Scenario2_SlowSpeed.node[4].veinsmobility 	stopTime 	60
scalar Scenario2_SlowSpeed.node[4].veinsmobility 	minSpeed 	0
scalar Scenario2_SlowSpeed.node[4].veinsmobility 	maxSpeed 	7.998761665849
scalar Scenario2_SlowSpeed.node[4].veinsmobility 	totalDistance 	221.48228246567
scalar Scenario2_SlowSpeed.node[4].veinsmobility 	totalCO2Emission 	86.618680082818
scalar Scenario2_SlowSpeed.node[133].appl 	generatedWSMs 	1
scalar Scenario2_SlowSpeed.node[133].appl 	receivedWSMs 	14
scalar Scenario2_SlowSpeed.node[133].appl 	generatedBSMs 	460
scalar Scenario2_SlowSpeed.node[133].appl 	receivedBSMs 	81347
scalar Scenario2_SlowSpeed.node[133].appl 	generatedWSAs 	0
scalar Scenario2_SlowSpeed.node[133].appl 	receivedWSAs 	0
scalar Scenario2_SlowSpeed.node[133].appl 	delayWSM 	0.000239995557
scalar Scenario2_SlowSpeed.node[133].appl 	Dist_Propa 	300.20230193585
scalar Scenario2_SlowSpeed.node[133].nic.phy80211p 	busyTime 	0.20672434782643
scalar Scenario2_SlowSpeed.node[133].nic.phy80211p 	ncollisions 	4354
scalar Scenario2_SlowSpeed.node[133].nic.mac1609_4 	ReceivedUnicastPackets 	0
scalar Scenario2_SlowSpeed.node[133].nic.mac1609_4 	ReceivedBroadcasts 	81361
scalar Scenario2_SlowSpeed.node[133].nic.mac1609_4 	SentPackets 	461
scalar Scenario2_SlowSpeed.node[133].nic.mac1609_4 	SNIRLostPackets 	9884
scalar Scenario2_SlowSpeed.node[133].nic.mac1609_4 	RXTXLostPackets 	47
scalar Scenario2_SlowSpeed.node[133].nic.mac1609_4 	TotalLostPackets 	9931
scalar Scenario2_SlowSpeed.node[133].nic.mac1609_4 	DroppedPacketsInMac 	0
scalar Scenario2_SlowSpeed.node[133].nic.mac1609_4 	TooLittleTime 	0
scalar Scenario2_SlowSpeed.node[133].nic.mac1609_4 	TimesIntoBackoff 	921
scalar Scenario2_SlowSpeed.node[133].nic.mac1609_4 	SlotsBackoff 	1438
scalar Scenario2_SlowSpeed.node[133].nic.mac1609_4 	NumInternalContention 	0
scalar Scenario2_SlowSpeed.node[133].nic.mac1609_4 	totalBusyTime 	8.965215850541
scalar Scenario2_SlowSpeed.node[133].veinsmobility 	startTime 	14
scalar Scenario2_SlowSpeed.node[133].veinsmobility 	totalTime 	46
scalar Scenario2_SlowSpeed.node[133].veinsmobility 	stopTime 	60
scalar Scenario2_SlowSpeed.node[133].veinsmobility 	minSpeed 	0.10445820526975
scalar Scenario2_SlowSpeed.node[133].veinsmobility 	maxSpeed 	7.9972986633936
scalar Scenario2_SlowSpeed.node[133].veinsmobility 	totalDistance 	170.69921458409
scalar Scenario2_SlowSpeed.node[133].veinsmobility 	totalCO2Emission 	62.419569569484
scalar Scenario2_SlowSpeed.node[134].appl 	generatedWSMs 	1
scalar Scenario2_SlowSpeed.node[134].appl 	receivedWSMs 	13
scalar Scenario2_SlowSpeed.node[134].appl 	generatedBSMs 	460
scalar Scenario2_SlowSpeed.node[134].appl 	receivedBSMs 	79954
scalar Scenario2_SlowSpeed.node[134].appl 	generatedWSAs 	0
scalar Scenario2_SlowSpeed.node[134].appl 	receivedWSAs 	0
scalar Scenario2_SlowSpeed.node[134].appl 	delayWSM 	0.000239837038
scalar Scenario2_SlowSpeed.node[134].appl 	Dist_Propa 	133.42353811115
scalar Scenario2_SlowSpeed.node[134].nic.phy80211p 	busyTime 	0.20151930434816
scalar Scenario2_SlowSpeed.node[134].nic.phy80211p 	ncollisions 	4128
scalar Scenario2_SlowSpeed.node[134].nic.mac1609_4 	ReceivedUnicastPackets 	0
scalar Scenario2_SlowSpeed.node[134].nic.mac1609_4 	ReceivedBroadcasts 	79967
scalar Scenario2_SlowSpeed.node[134].nic.mac1609_4 	SentPackets 	461
scalar Scenario2_SlowSpeed.node[134].nic.mac1609_4 	SNIRLostPackets 	8977
scalar Scenario2_SlowSpeed.node[134].nic.mac1609_4 	RXTXLostPackets 	47
scalar Scenario2_SlowSpeed.node[134].nic.mac1609_4 	TotalLostPackets 	9024
scalar Scenario2_SlowSpeed.node[134].nic.mac1609_4 	DroppedPacketsInMac 	0
scalar Scenario2_SlowSpeed.node[134].nic.mac1609_4 	TooLittleTime 	0
scalar Scenario2_SlowSpeed.node[134].nic.mac1609_4 	TimesIntoBackoff 	461
scalar Scenario2_SlowSpeed.node[134].nic.mac1609_4 	SlotsBackoff 	685
scalar Scenario2_SlowSpeed.node[134].nic.mac1609_4 	NumInternalContention 	0
scalar Scenario2_SlowSpeed.node[134].nic.mac1609_4 	totalBusyTime 	8.797977141038
scalar Scenario2_SlowSpeed.node[134].veinsmobility 	startTime 	14
scalar Scenario2_SlowSpeed.node[134].veinsmobility 	totalTime 	46
scalar Scenario2_SlowSpeed.node[134].veinsmobility 	stopTime 	60
scalar Scenario2_SlowSpeed.node[134].veinsmobility 	minSpeed 	0
scalar Scenario2_SlowSpeed.node[134].veinsmobility 	maxSpeed 	3.0139677684894
scalar Scenario2_SlowSpeed.node[134].veinsmobility 	totalDistance 	45.514716471293
scalar Scenario2_SlowSpeed.node[134].veinsmobility 	totalCO2Emission 	48.764261989621
scalar Scenario2_SlowSpeed.node[135].appl 	generatedWSMs 	1
scalar Scenario2_SlowSpeed.node[135].appl 	receivedWSMs 	12
scalar Scenario2_SlowSpeed.node[135].appl 	generatedBSMs 	460
scalar Scenario2_SlowSpeed.node[135].appl 	receivedBSMs 	78836
scalar Scenario2_SlowSpeed.node[135].appl 	generatedWSAs 	0
scalar Scenario2_SlowSpeed.node[135].appl 	receivedWSAs 	0
scalar Scenario2_SlowSpeed.node[135].appl 	delayWSM 	0.000239686611
scalar Scenario2_SlowSpeed.node[135].appl 	Dist_Propa 	170.32550133369
scalar Scenario2_SlowSpeed.node[135].nic.phy80211p 	busyTime 	0.19644991304379
scalar Scenario2_SlowSpeed.node[135].nic.phy80211p 	ncollisions 	3498
scalar Scenario2_SlowSpeed.node[135].nic.mac1609_4 	ReceivedUnicastPackets 	0
scalar Scenario2_SlowSpeed.node[135].nic.mac1609_4 	ReceivedBroadcasts 	78848
scalar Scenario2_SlowSpeed.node[135].nic.mac1609_4 	SentPackets 	461
scalar Scenario2_SlowSpeed.node[135].nic.mac1609_4 	SNIRLostPackets 	7855
scalar Scenario2_SlowSpeed.node[135].nic.mac1609_4 	RXTXLostPackets 	47
scalar Scenario2_SlowSpeed.node[135].nic.mac1609_4 	TotalLostPackets 	7902
scalar Scenario2_SlowSpeed.node[135].nic.mac1609_4 	DroppedPacketsInMac 	0
scalar Scenario2_SlowSpeed.node[135].nic.mac1609_4 	TooLittleTime 	0
scalar Scenario2_SlowSpeed.node[135].nic.mac1609_4 	TimesIntoBackoff 	461
scalar Scenario2_SlowSpeed.node[135].nic.mac1609_4 	SlotsBackoff 	690
scalar Scenario2_SlowSpeed.node[135].nic.mac1609_4 	NumInternalContention 	0
scalar Scenario2_SlowSpeed.node[135].nic.mac1609_4 	totalBusyTime 	8.615126605096
scalar Scenario2_SlowSpeed.node[135].veinsmobility 	startTime 	14
scalar Scenario2_SlowSpeed.node[135].veinsmobility 	totalTime 	46
scalar Scenario2_SlowSpeed.node[135].veinsmobility 	stopTime 	60
scalar Scenario2_SlowSpeed.node[135].veinsmobility 	minSpeed 	0.25971952628763
scalar Scenario2_SlowSpeed.node[135].veinsmobility 	maxSpeed 	4.0300765405005
scalar Scenario2_SlowSpeed.node[135].veinsmobility 	totalDistance 	76.975584257825
scalar Scenario2_SlowSpeed.node[135].veinsmobility 	totalCO2Emission 	53.496626076073
scalar Scenario2_SlowSpeed.node[136].appl 	generatedWSMs 	1
scalar Scenario2_SlowSpeed.node[136].appl 	receivedWSMs 	7
scalar Scenario2_SlowSpeed.node[136].appl 	generatedBSMs 	460
scalar Scenario2_SlowSpeed.node[136].appl 	receivedBSMs 	67907
scalar Scenario2_SlowSpeed.node[136].appl 	generatedWSAs 	0
scalar Scenario2_SlowSpeed.node[136].appl 	receivedWSAs 	0
scalar Scenario2_SlowSpeed.node[136].appl 	delayWSM 	0.000239827389
scalar Scenario2_SlowSpeed.node[136].appl 	Dist_Propa 	367.96381337151
scalar Scenario2_SlowSpeed.node[136].nic.phy80211p 	busyTime 	0.16352243478282
scalar Scenario2_SlowSpeed.node[136].nic.phy80211p 	ncollisions 	1680
scalar Scenario2_SlowSpeed.node[136].nic.mac1609_4 	ReceivedUnicastPackets 	0
scalar Scenario2_SlowSpeed.node[136].nic.mac1609_4 	ReceivedBroadcasts 	67914
scalar Scenario2_SlowSpeed.node[136].nic.mac1609_4 	SentPackets 	461
scalar Scenario2_SlowSpeed.node[136].nic.mac1609_4 	SNIRLostPackets 	4284
scalar Scenario2_SlowSpeed.node[136].nic.mac1609_4 	RXTXLostPackets 	89
scalar Scenario2_SlowSpeed.node[136].nic.mac1609_4 	TotalLostPackets 	4373
scalar Scenario2_SlowSpeed.node[136].nic.mac1609_4 	DroppedPacketsInMac 	0
scalar Scenario2_SlowSpeed.node[136].nic.mac1609_4 	TooLittleTime 	0
scalar Scenario2_SlowSpeed.node[136].nic.mac1609_4 	TimesIntoBackoff 	461
scalar Scenario2_SlowSpeed.node[136].nic.mac1609_4 	SlotsBackoff 	721
scalar Scenario2_SlowSpeed.node[136].nic.mac1609_4 	NumInternalContention 	0
scalar Scenario2_SlowSpeed.node[136].nic.mac1609_4 	totalBusyTime 	7.28759043835
scalar Scenario2_SlowSpeed.node[136].veinsmobility 	startTime 	14
scalar Scenario2_SlowSpeed.node[136].veinsmobility 	totalTime 	46
scalar Scenario2_SlowSpeed.node[136].veinsmobility 	stopTime 	60
scalar Scenario2_SlowSpeed.node[136].veinsmobility 	minSpeed 	0.44558853910227
scalar Scenario2_SlowSpeed.node[136].veinsmobility 	maxSpeed 	7.9899813973787
scalar Scenario2_SlowSpeed.node[136].veinsmobility 	totalDistance 	117.76961795552
scalar Scenario2_SlowSpeed.node[136].veinsmobility 	totalCO2Emission 	62.749781603504
scalar Scenario2_SlowSpeed.node[137].appl 	generatedWSMs 	1
scalar Scenario2_SlowSpeed.node[137].appl 	receivedWSMs 	13
scalar Scenario2_SlowSpeed.node[137].appl 	generatedBSMs 	460
scalar Scenario2_SlowSpeed.node[137].appl 	receivedBSMs 	81488
scalar Scenario2_SlowSpeed.node[137].appl 	generatedWSAs 	0
scalar Scenario2_SlowSpeed.node[137].appl 	receivedWSAs 	0
scalar Scenario2_SlowSpeed.node[137].appl 	delayWSM 	0.000239908764
scalar Scenario2_SlowSpeed.node[137].appl 	Dist_Propa 	326.66023569906
scalar Scenario2_SlowSpeed.node[137].nic.phy80211p 	busyTime 	0.20617669565252
scalar Scenario2_SlowSpeed.node[137].nic.phy80211p 	ncollisions 	4184
scalar Scenario2_SlowSpeed.node[137].nic.mac1609_4 	ReceivedUnicastPackets 	0
scalar Scenario2_SlowSpeed.node[137].nic.mac1609_4 	ReceivedBroadcasts 	81501
scalar Scenario2_SlowSpeed.node[137].nic.mac1609_4 	SentPackets 	461
scalar Scenario2_SlowSpeed.node[137].nic.mac1609_4 	SNIRLostPackets 	9503
scalar Scenario2_SlowSpeed.node[137].nic.mac1609_4 	RXTXLostPackets 	157
scalar Scenario2_SlowSpeed.node[137].nic.mac1609_4 	TotalLostPackets 	9660
scalar Scenario2_SlowSpeed.node[137].nic.mac1609_4 	DroppedPacketsInMac 	0
scalar Scenario2_SlowSpeed.node[137].nic.mac1609_4 	TooLittleTime 	0
scalar Scenario2_SlowSpeed.node[137].nic.mac1609_4 	TimesIntoBackoff 	811
scalar Scenario2_SlowSpeed.node[137].nic.mac1609_4 	SlotsBackoff 	1247
scalar Scenario2_SlowSpeed.node[137].nic.mac1609_4 	NumInternalContention 	0
scalar Scenario2_SlowSpeed.node[137].nic.mac1609_4 	totalBusyTime 	8.963116172386
scalar Scenario2_SlowSpeed.node[137].veinsmobility 	startTime 	14
scalar Scenario2_SlowSpeed.node[137].veinsmobility 	totalTime 	46
scalar Scenario2_SlowSpeed.node[137].veinsmobility 	stopTime 	60
scalar Scenario2_SlowSpeed.node[137].veinsmobility 	minSpeed 	0.0011512119821862
scalar Scenario2_SlowSpeed.node[137].veinsmobility 	maxSpeed 	7.9960292543203
scalar Scenario2_SlowSpeed.node[137].veinsmobility 	totalDistance 	219.5401654672
scalar Scenario2_SlowSpeed.node[137].veinsmobility 	totalCO2Emission 	72.904897170006
scalar Scenario2_SlowSpeed.node[50].appl 	generatedWSMs 	1
scalar Scenario2_SlowSpeed.node[50].appl 	receivedWSMs 	15
scalar Scenario2_SlowSpeed.node[50].appl 	generatedBSMs 	580
scalar Scenario2_SlowSpeed.node[50].appl 	receivedBSMs 	89506
scalar Scenario2_SlowSpeed.node[50].appl 	generatedWSAs 	0
scalar Scenario2_SlowSpeed.node[50].appl 	receivedWSAs 	0
scalar Scenario2_SlowSpeed.node[50].appl 	delayWSM 	0.000240358116
scalar Scenario2_SlowSpeed.node[50].appl 	Dist_Propa 	61.242221293015
scalar Scenario2_SlowSpeed.node[50].nic.phy80211p 	busyTime 	0.17894234482791
scalar Scenario2_SlowSpeed.node[50].nic.phy80211p 	ncollisions 	4700
scalar Scenario2_SlowSpeed.node[50].nic.mac1609_4 	ReceivedUnicastPackets 	0
scalar Scenario2_SlowSpeed.node[50].nic.mac1609_4 	ReceivedBroadcasts 	89521
scalar Scenario2_SlowSpeed.node[50].nic.mac1609_4 	SentPackets 	581
scalar Scenario2_SlowSpeed.node[50].nic.mac1609_4 	SNIRLostPackets 	10112
scalar Scenario2_SlowSpeed.node[50].nic.mac1609_4 	RXTXLostPackets 	93
scalar Scenario2_SlowSpeed.node[50].nic.mac1609_4 	TotalLostPackets 	10205
scalar Scenario2_SlowSpeed.node[50].nic.mac1609_4 	DroppedPacketsInMac 	0
scalar Scenario2_SlowSpeed.node[50].nic.mac1609_4 	TooLittleTime 	0
scalar Scenario2_SlowSpeed.node[50].nic.mac1609_4 	TimesIntoBackoff 	1151
scalar Scenario2_SlowSpeed.node[50].nic.mac1609_4 	SlotsBackoff 	1724
scalar Scenario2_SlowSpeed.node[50].nic.mac1609_4 	NumInternalContention 	0
scalar Scenario2_SlowSpeed.node[50].nic.mac1609_4 	totalBusyTime 	9.863229396803
scalar Scenario2_SlowSpeed.node[50].veinsmobility 	startTime 	2
scalar Scenario2_SlowSpeed.node[50].veinsmobility 	totalTime 	58
scalar Scenario2_SlowSpeed.node[50].veinsmobility 	stopTime 	60
scalar Scenario2_SlowSpeed.node[50].veinsmobility 	minSpeed 	0
scalar Scenario2_SlowSpeed.node[50].veinsmobility 	maxSpeed 	7.9887561947617
scalar Scenario2_SlowSpeed.node[50].veinsmobility 	totalDistance 	151.56543633743
scalar Scenario2_SlowSpeed.node[50].veinsmobility 	totalCO2Emission 	81.682451808125
scalar Scenario2_SlowSpeed.node[138].appl 	generatedWSMs 	1
scalar Scenario2_SlowSpeed.node[138].appl 	receivedWSMs 	7
scalar Scenario2_SlowSpeed.node[138].appl 	generatedBSMs 	460
scalar Scenario2_SlowSpeed.node[138].appl 	receivedBSMs 	72883
scalar Scenario2_SlowSpeed.node[138].appl 	generatedWSAs 	0
scalar Scenario2_SlowSpeed.node[138].appl 	receivedWSAs 	0
scalar Scenario2_SlowSpeed.node[138].appl 	delayWSM 	0.000239781647
scalar Scenario2_SlowSpeed.node[138].appl 	Dist_Propa 	459.6082181375
scalar Scenario2_SlowSpeed.node[138].nic.phy80211p 	busyTime 	0.18013060869592
scalar Scenario2_SlowSpeed.node[138].nic.phy80211p 	ncollisions 	2929
scalar Scenario2_SlowSpeed.node[138].nic.mac1609_4 	ReceivedUnicastPackets 	0
scalar Scenario2_SlowSpeed.node[138].nic.mac1609_4 	ReceivedBroadcasts 	72890
scalar Scenario2_SlowSpeed.node[138].nic.mac1609_4 	SentPackets 	461
scalar Scenario2_SlowSpeed.node[138].nic.mac1609_4 	SNIRLostPackets 	6649
scalar Scenario2_SlowSpeed.node[138].nic.mac1609_4 	RXTXLostPackets 	62
scalar Scenario2_SlowSpeed.node[138].nic.mac1609_4 	TotalLostPackets 	6711
scalar Scenario2_SlowSpeed.node[138].nic.mac1609_4 	DroppedPacketsInMac 	0
scalar Scenario2_SlowSpeed.node[138].nic.mac1609_4 	TooLittleTime 	0
scalar Scenario2_SlowSpeed.node[138].nic.mac1609_4 	TimesIntoBackoff 	461
scalar Scenario2_SlowSpeed.node[138].nic.mac1609_4 	SlotsBackoff 	683
scalar Scenario2_SlowSpeed.node[138].nic.mac1609_4 	NumInternalContention 	0
scalar Scenario2_SlowSpeed.node[138].nic.mac1609_4 	totalBusyTime 	7.936623850545
scalar Scenario2_SlowSpeed.node[138].veinsmobility 	startTime 	14
scalar Scenario2_SlowSpeed.node[138].veinsmobility 	totalTime 	46
scalar Scenario2_SlowSpeed.node[138].veinsmobility 	stopTime 	60
scalar Scenario2_SlowSpeed.node[138].veinsmobility 	minSpeed 	2.8710507214793
scalar Scenario2_SlowSpeed.node[138].veinsmobility 	maxSpeed 	7.9995235687401
scalar Scenario2_SlowSpeed.node[138].veinsmobility 	totalDistance 	332.97462018339
scalar Scenario2_SlowSpeed.node[138].veinsmobility 	totalCO2Emission 	78.864966225494
scalar Scenario2_SlowSpeed.node[139].appl 	generatedWSMs 	1
scalar Scenario2_SlowSpeed.node[139].appl 	receivedWSMs 	15
scalar Scenario2_SlowSpeed.node[139].appl 	generatedBSMs 	460
scalar Scenario2_SlowSpeed.node[139].appl 	receivedBSMs 	81283
scalar Scenario2_SlowSpeed.node[139].appl 	generatedWSAs 	0
scalar Scenario2_SlowSpeed.node[139].appl 	receivedWSAs 	0
scalar Scenario2_SlowSpeed.node[139].appl 	delayWSM 	0.00024012163
scalar Scenario2_SlowSpeed.node[139].appl 	Dist_Propa 	127.59482649837
scalar Scenario2_SlowSpeed.node[139].nic.phy80211p 	busyTime 	0.20723391304383
scalar Scenario2_SlowSpeed.node[139].nic.phy80211p 	ncollisions 	4632
scalar Scenario2_SlowSpeed.node[139].nic.mac1609_4 	ReceivedUnicastPackets 	0
scalar Scenario2_SlowSpeed.node[139].nic.mac1609_4 	ReceivedBroadcasts 	81298
scalar Scenario2_SlowSpeed.node[139].nic.mac1609_4 	SentPackets 	461
scalar Scenario2_SlowSpeed.node[139].nic.mac1609_4 	SNIRLostPackets 	10197
scalar Scenario2_SlowSpeed.node[139].nic.mac1609_4 	RXTXLostPackets 	67
scalar Scenario2_SlowSpeed.node[139].nic.mac1609_4 	TotalLostPackets 	10264
scalar Scenario2_SlowSpeed.node[139].nic.mac1609_4 	DroppedPacketsInMac 	0
scalar Scenario2_SlowSpeed.node[139].nic.mac1609_4 	TooLittleTime 	0
scalar Scenario2_SlowSpeed.node[139].nic.mac1609_4 	TimesIntoBackoff 	681
scalar Scenario2_SlowSpeed.node[139].nic.mac1609_4 	SlotsBackoff 	1062
scalar Scenario2_SlowSpeed.node[139].nic.mac1609_4 	NumInternalContention 	0
scalar Scenario2_SlowSpeed.node[139].nic.mac1609_4 	totalBusyTime 	8.987690444696
scalar Scenario2_SlowSpeed.node[139].veinsmobility 	startTime 	14
scalar Scenario2_SlowSpeed.node[139].veinsmobility 	totalTime 	46
scalar Scenario2_SlowSpeed.node[139].veinsmobility 	stopTime 	60
scalar Scenario2_SlowSpeed.node[139].veinsmobility 	minSpeed 	0
scalar Scenario2_SlowSpeed.node[139].veinsmobility 	maxSpeed 	7.9979434607667
scalar Scenario2_SlowSpeed.node[139].veinsmobility 	totalDistance 	144.6821510057
scalar Scenario2_SlowSpeed.node[139].veinsmobility 	totalCO2Emission 	73.836815190603
scalar Scenario2_SlowSpeed.node[141].appl 	generatedWSMs 	1
scalar Scenario2_SlowSpeed.node[141].appl 	receivedWSMs 	15
scalar Scenario2_SlowSpeed.node[141].appl 	generatedBSMs 	450
scalar Scenario2_SlowSpeed.node[141].appl 	receivedBSMs 	80458
scalar Scenario2_SlowSpeed.node[141].appl 	generatedWSAs 	0
scalar Scenario2_SlowSpeed.node[141].appl 	receivedWSAs 	0
scalar Scenario2_SlowSpeed.node[141].appl 	delayWSM 	0.000240112197
scalar Scenario2_SlowSpeed.node[141].appl 	Dist_Propa 	27.229641736523
scalar Scenario2_SlowSpeed.node[141].nic.phy80211p 	busyTime 	0.20880462222257
scalar Scenario2_SlowSpeed.node[141].nic.phy80211p 	ncollisions 	4397
scalar Scenario2_SlowSpeed.node[141].nic.mac1609_4 	ReceivedUnicastPackets 	0
scalar Scenario2_SlowSpeed.node[141].nic.mac1609_4 	ReceivedBroadcasts 	80473
scalar Scenario2_SlowSpeed.node[141].nic.mac1609_4 	SentPackets 	451
scalar Scenario2_SlowSpeed.node[141].nic.mac1609_4 	SNIRLostPackets 	9709
scalar Scenario2_SlowSpeed.node[141].nic.mac1609_4 	RXTXLostPackets 	250
scalar Scenario2_SlowSpeed.node[141].nic.mac1609_4 	TotalLostPackets 	9959
scalar Scenario2_SlowSpeed.node[141].nic.mac1609_4 	DroppedPacketsInMac 	0
scalar Scenario2_SlowSpeed.node[141].nic.mac1609_4 	TooLittleTime 	0
scalar Scenario2_SlowSpeed.node[141].nic.mac1609_4 	TimesIntoBackoff 	591
scalar Scenario2_SlowSpeed.node[141].nic.mac1609_4 	SlotsBackoff 	893
scalar Scenario2_SlowSpeed.node[141].nic.mac1609_4 	NumInternalContention 	0
scalar Scenario2_SlowSpeed.node[141].nic.mac1609_4 	totalBusyTime 	8.876418617422
scalar Scenario2_SlowSpeed.node[141].veinsmobility 	startTime 	15
scalar Scenario2_SlowSpeed.node[141].veinsmobility 	totalTime 	45
scalar Scenario2_SlowSpeed.node[141].veinsmobility 	stopTime 	60
scalar Scenario2_SlowSpeed.node[141].veinsmobility 	minSpeed 	0
scalar Scenario2_SlowSpeed.node[141].veinsmobility 	maxSpeed 	1.9491384638796
scalar Scenario2_SlowSpeed.node[141].veinsmobility 	totalDistance 	27.309252089337
scalar Scenario2_SlowSpeed.node[141].veinsmobility 	totalCO2Emission 	47.271451431378
scalar Scenario2_SlowSpeed.node[142].appl 	generatedWSMs 	1
scalar Scenario2_SlowSpeed.node[142].appl 	receivedWSMs 	15
scalar Scenario2_SlowSpeed.node[142].appl 	generatedBSMs 	450
scalar Scenario2_SlowSpeed.node[142].appl 	receivedBSMs 	78254
scalar Scenario2_SlowSpeed.node[142].appl 	generatedWSAs 	0
scalar Scenario2_SlowSpeed.node[142].appl 	receivedWSAs 	0
scalar Scenario2_SlowSpeed.node[142].appl 	delayWSM 	0.000240219375
scalar Scenario2_SlowSpeed.node[142].appl 	Dist_Propa 	30.992785712415
scalar Scenario2_SlowSpeed.node[142].nic.phy80211p 	busyTime 	0.2018961777781
scalar Scenario2_SlowSpeed.node[142].nic.phy80211p 	ncollisions 	4159
scalar Scenario2_SlowSpeed.node[142].nic.mac1609_4 	ReceivedUnicastPackets 	0
scalar Scenario2_SlowSpeed.node[142].nic.mac1609_4 	ReceivedBroadcasts 	78269
scalar Scenario2_SlowSpeed.node[142].nic.mac1609_4 	SentPackets 	451
scalar Scenario2_SlowSpeed.node[142].nic.mac1609_4 	SNIRLostPackets 	8925
scalar Scenario2_SlowSpeed.node[142].nic.mac1609_4 	RXTXLostPackets 	67
scalar Scenario2_SlowSpeed.node[142].nic.mac1609_4 	TotalLostPackets 	8992
scalar Scenario2_SlowSpeed.node[142].nic.mac1609_4 	DroppedPacketsInMac 	0
scalar Scenario2_SlowSpeed.node[142].nic.mac1609_4 	TooLittleTime 	0
scalar Scenario2_SlowSpeed.node[142].nic.mac1609_4 	TimesIntoBackoff 	451
scalar Scenario2_SlowSpeed.node[142].nic.mac1609_4 	SlotsBackoff 	658
scalar Scenario2_SlowSpeed.node[142].nic.mac1609_4 	NumInternalContention 	0
scalar Scenario2_SlowSpeed.node[142].nic.mac1609_4 	totalBusyTime 	8.622432837639
scalar Scenario2_SlowSpeed.node[142].veinsmobility 	startTime 	15
scalar Scenario2_SlowSpeed.node[142].veinsmobility 	totalTime 	45
scalar Scenario2_SlowSpeed.node[142].veinsmobility 	stopTime 	60
scalar Scenario2_SlowSpeed.node[142].veinsmobility 	minSpeed 	0
scalar Scenario2_SlowSpeed.node[142].veinsmobility 	maxSpeed 	7.9308313102934
scalar Scenario2_SlowSpeed.node[142].veinsmobility 	totalDistance 	190.47800645151
scalar Scenario2_SlowSpeed.node[142].veinsmobility 	totalCO2Emission 	66.574369351644
scalar Scenario2_SlowSpeed.node[5].appl 	generatedWSMs 	1
scalar Scenario2_SlowSpeed.node[5].appl 	receivedWSMs 	15
scalar Scenario2_SlowSpeed.node[5].appl 	generatedBSMs 	590
scalar Scenario2_SlowSpeed.node[5].appl 	receivedBSMs 	90585
scalar Scenario2_SlowSpeed.node[5].appl 	generatedWSAs 	0
scalar Scenario2_SlowSpeed.node[5].appl 	receivedWSAs 	0
scalar Scenario2_SlowSpeed.node[5].appl 	delayWSM 	0.000240008607
scalar Scenario2_SlowSpeed.node[5].appl 	Dist_Propa 	294.11036298728
scalar Scenario2_SlowSpeed.node[5].nic.phy80211p 	busyTime 	0.17842210169524
scalar Scenario2_SlowSpeed.node[5].nic.phy80211p 	ncollisions 	4654
scalar Scenario2_SlowSpeed.node[5].nic.mac1609_4 	ReceivedUnicastPackets 	0
scalar Scenario2_SlowSpeed.node[5].nic.mac1609_4 	ReceivedBroadcasts 	90600
scalar Scenario2_SlowSpeed.node[5].nic.mac1609_4 	SentPackets 	591
scalar Scenario2_SlowSpeed.node[5].nic.mac1609_4 	SNIRLostPackets 	10427
scalar Scenario2_SlowSpeed.node[5].nic.mac1609_4 	RXTXLostPackets 	47
scalar Scenario2_SlowSpeed.node[5].nic.mac1609_4 	TotalLostPackets 	10474
scalar Scenario2_SlowSpeed.node[5].nic.mac1609_4 	DroppedPacketsInMac 	0
scalar Scenario2_SlowSpeed.node[5].nic.mac1609_4 	TooLittleTime 	0
scalar Scenario2_SlowSpeed.node[5].nic.mac1609_4 	TimesIntoBackoff 	1102
scalar Scenario2_SlowSpeed.node[5].nic.mac1609_4 	SlotsBackoff 	1669
scalar Scenario2_SlowSpeed.node[5].nic.mac1609_4 	NumInternalContention 	0
scalar Scenario2_SlowSpeed.node[5].nic.mac1609_4 	totalBusyTime 	9.971445525326
scalar Scenario2_SlowSpeed.node[5].veinsmobility 	startTime 	1
scalar Scenario2_SlowSpeed.node[5].veinsmobility 	totalTime 	59
scalar Scenario2_SlowSpeed.node[5].veinsmobility 	stopTime 	60
scalar Scenario2_SlowSpeed.node[5].veinsmobility 	minSpeed 	0
scalar Scenario2_SlowSpeed.node[5].veinsmobility 	maxSpeed 	7.9973915574094
scalar Scenario2_SlowSpeed.node[5].veinsmobility 	totalDistance 	323.59299026291
scalar Scenario2_SlowSpeed.node[5].veinsmobility 	totalCO2Emission 	85.259917822717
scalar Scenario2_SlowSpeed.node[143].appl 	generatedWSMs 	1
scalar Scenario2_SlowSpeed.node[143].appl 	receivedWSMs 	12
scalar Scenario2_SlowSpeed.node[143].appl 	generatedBSMs 	450
scalar Scenario2_SlowSpeed.node[143].appl 	receivedBSMs 	80296
scalar Scenario2_SlowSpeed.node[143].appl 	generatedWSAs 	0
scalar Scenario2_SlowSpeed.node[143].appl 	receivedWSAs 	0
scalar Scenario2_SlowSpeed.node[143].appl 	delayWSM 	0.000239957821
scalar Scenario2_SlowSpeed.node[143].appl 	Dist_Propa 	96.936475757787
scalar Scenario2_SlowSpeed.node[143].nic.phy80211p 	busyTime 	0.20862026666701
scalar Scenario2_SlowSpeed.node[143].nic.phy80211p 	ncollisions 	4235
scalar Scenario2_SlowSpeed.node[143].nic.mac1609_4 	ReceivedUnicastPackets 	0
scalar Scenario2_SlowSpeed.node[143].nic.mac1609_4 	ReceivedBroadcasts 	80308
scalar Scenario2_SlowSpeed.node[143].nic.mac1609_4 	SentPackets 	451
scalar Scenario2_SlowSpeed.node[143].nic.mac1609_4 	SNIRLostPackets 	9713
scalar Scenario2_SlowSpeed.node[143].nic.mac1609_4 	RXTXLostPackets 	0
scalar Scenario2_SlowSpeed.node[143].nic.mac1609_4 	TotalLostPackets 	9713
scalar Scenario2_SlowSpeed.node[143].nic.mac1609_4 	DroppedPacketsInMac 	0
scalar Scenario2_SlowSpeed.node[143].nic.mac1609_4 	TooLittleTime 	0
scalar Scenario2_SlowSpeed.node[143].nic.mac1609_4 	TimesIntoBackoff 	651
scalar Scenario2_SlowSpeed.node[143].nic.mac1609_4 	SlotsBackoff 	1002
scalar Scenario2_SlowSpeed.node[143].nic.mac1609_4 	NumInternalContention 	0
scalar Scenario2_SlowSpeed.node[143].nic.mac1609_4 	totalBusyTime 	8.842013140495
scalar Scenario2_SlowSpeed.node[143].veinsmobility 	startTime 	15
scalar Scenario2_SlowSpeed.node[143].veinsmobility 	totalTime 	45
scalar Scenario2_SlowSpeed.node[143].veinsmobility 	stopTime 	60
scalar Scenario2_SlowSpeed.node[143].veinsmobility 	minSpeed 	0
scalar Scenario2_SlowSpeed.node[143].veinsmobility 	maxSpeed 	2.1746889111157
scalar Scenario2_SlowSpeed.node[143].veinsmobility 	totalDistance 	32.830371522545
scalar Scenario2_SlowSpeed.node[143].veinsmobility 	totalCO2Emission 	48.744099937836
scalar Scenario2_SlowSpeed.node[144].appl 	generatedWSMs 	1
scalar Scenario2_SlowSpeed.node[144].appl 	receivedWSMs 	7
scalar Scenario2_SlowSpeed.node[144].appl 	generatedBSMs 	450
scalar Scenario2_SlowSpeed.node[144].appl 	receivedBSMs 	61406
scalar Scenario2_SlowSpeed.node[144].appl 	generatedWSAs 	0
scalar Scenario2_SlowSpeed.node[144].appl 	receivedWSAs 	0
scalar Scenario2_SlowSpeed.node[144].appl 	delayWSM 	0.000239975208
scalar Scenario2_SlowSpeed.node[144].appl 	Dist_Propa 	563.75036602009
scalar Scenario2_SlowSpeed.node[144].nic.phy80211p 	busyTime 	0.15079662222239
scalar Scenario2_SlowSpeed.node[144].nic.phy80211p 	ncollisions 	1461
scalar Scenario2_SlowSpeed.node[144].nic.mac1609_4 	ReceivedUnicastPackets 	0
scalar Scenario2_SlowSpeed.node[144].nic.mac1609_4 	ReceivedBroadcasts 	61413
scalar Scenario2_SlowSpeed.node[144].nic.mac1609_4 	SentPackets 	451
scalar Scenario2_SlowSpeed.node[144].nic.mac1609_4 	SNIRLostPackets 	3726
scalar Scenario2_SlowSpeed.node[144].nic.mac1609_4 	RXTXLostPackets 	62
scalar Scenario2_SlowSpeed.node[144].nic.mac1609_4 	TotalLostPackets 	3788
scalar Scenario2_SlowSpeed.node[144].nic.mac1609_4 	DroppedPacketsInMac 	0
scalar Scenario2_SlowSpeed.node[144].nic.mac1609_4 	TooLittleTime 	0
scalar Scenario2_SlowSpeed.node[144].nic.mac1609_4 	TimesIntoBackoff 	451
scalar Scenario2_SlowSpeed.node[144].nic.mac1609_4 	SlotsBackoff 	664
scalar Scenario2_SlowSpeed.node[144].nic.mac1609_4 	NumInternalContention 	0
scalar Scenario2_SlowSpeed.node[144].nic.mac1609_4 	totalBusyTime 	6.587660552099
scalar Scenario2_SlowSpeed.node[144].veinsmobility 	startTime 	15
[...]
scalar Scenario2_SlowSpeed.node[257].appl 	receivedWSAs 	0
scalar Scenario2_SlowSpeed.node[257].appl 	delayWSM 	-1
scalar Scenario2_SlowSpeed.node[257].appl 	Dist_Propa 	-1
scalar Scenario2_SlowSpeed.node[257].nic.phy80211p 	busyTime 	0.035880000000001
scalar Scenario2_SlowSpeed.node[257].nic.phy80211p 	ncollisions 	22
scalar Scenario2_SlowSpeed.node[257].nic.mac1609_4 	ReceivedUnicastPackets 	0
scalar Scenario2_SlowSpeed.node[257].nic.mac1609_4 	ReceivedBroadcasts 	1358
scalar Scenario2_SlowSpeed.node[257].nic.mac1609_4 	SentPackets 	40
scalar Scenario2_SlowSpeed.node[257].nic.mac1609_4 	SNIRLostPackets 	22
scalar Scenario2_SlowSpeed.node[257].nic.mac1609_4 	RXTXLostPackets 	0
scalar Scenario2_SlowSpeed.node[257].nic.mac1609_4 	TotalLostPackets 	22
scalar Scenario2_SlowSpeed.node[257].nic.mac1609_4 	DroppedPacketsInMac 	0
scalar Scenario2_SlowSpeed.node[257].nic.mac1609_4 	TooLittleTime 	0
scalar Scenario2_SlowSpeed.node[257].nic.mac1609_4 	TimesIntoBackoff 	40
scalar Scenario2_SlowSpeed.node[257].nic.mac1609_4 	SlotsBackoff 	58
scalar Scenario2_SlowSpeed.node[257].nic.mac1609_4 	NumInternalContention 	0
scalar Scenario2_SlowSpeed.node[257].nic.mac1609_4 	totalBusyTime 	0.14772
scalar Scenario2_SlowSpeed.node[257].veinsmobility 	startTime 	56
scalar Scenario2_SlowSpeed.node[257].veinsmobility 	totalTime 	4
scalar Scenario2_SlowSpeed.node[257].veinsmobility 	stopTime 	60
scalar Scenario2_SlowSpeed.node[257].veinsmobility 	minSpeed 	2.1940109600276
scalar Scenario2_SlowSpeed.node[257].veinsmobility 	maxSpeed 	7.9843347878265
scalar Scenario2_SlowSpeed.node[257].veinsmobility 	totalDistance 	16.969794114381
scalar Scenario2_SlowSpeed.node[257].veinsmobility 	totalCO2Emission 	12.730751709568
scalar Scenario2_SlowSpeed.node[260].appl 	generatedWSMs 	0
scalar Scenario2_SlowSpeed.node[260].appl 	receivedWSMs 	0
scalar Scenario2_SlowSpeed.node[260].appl 	generatedBSMs 	20
scalar Scenario2_SlowSpeed.node[260].appl 	receivedBSMs 	667
scalar Scenario2_SlowSpeed.node[260].appl 	generatedWSAs 	0
scalar Scenario2_SlowSpeed.node[260].appl 	receivedWSAs 	0
scalar Scenario2_SlowSpeed.node[260].appl 	delayWSM 	-1
scalar Scenario2_SlowSpeed.node[260].appl 	Dist_Propa 	-1
scalar Scenario2_SlowSpeed.node[260].nic.phy80211p 	busyTime 	0.03536
scalar Scenario2_SlowSpeed.node[260].nic.phy80211p 	ncollisions 	13
scalar Scenario2_SlowSpeed.node[260].nic.mac1609_4 	ReceivedUnicastPackets 	0
scalar Scenario2_SlowSpeed.node[260].nic.mac1609_4 	ReceivedBroadcasts 	667
scalar Scenario2_SlowSpeed.node[260].nic.mac1609_4 	SentPackets 	20
scalar Scenario2_SlowSpeed.node[260].nic.mac1609_4 	SNIRLostPackets 	13
scalar Scenario2_SlowSpeed.node[260].nic.mac1609_4 	RXTXLostPackets 	0
scalar Scenario2_SlowSpeed.node[260].nic.mac1609_4 	TotalLostPackets 	13
scalar Scenario2_SlowSpeed.node[260].nic.mac1609_4 	DroppedPacketsInMac 	0
scalar Scenario2_SlowSpeed.node[260].nic.mac1609_4 	TooLittleTime 	0
scalar Scenario2_SlowSpeed.node[260].nic.mac1609_4 	TimesIntoBackoff 	20
scalar Scenario2_SlowSpeed.node[260].nic.mac1609_4 	SlotsBackoff 	36
scalar Scenario2_SlowSpeed.node[260].nic.mac1609_4 	NumInternalContention 	0
scalar Scenario2_SlowSpeed.node[260].nic.mac1609_4 	totalBusyTime 	0.07282
scalar Scenario2_SlowSpeed.node[260].veinsmobility 	startTime 	58
scalar Scenario2_SlowSpeed.node[260].veinsmobility 	totalTime 	2
scalar Scenario2_SlowSpeed.node[260].veinsmobility 	stopTime 	60
scalar Scenario2_SlowSpeed.node[260].veinsmobility 	minSpeed 	2.6719666774688
scalar Scenario2_SlowSpeed.node[260].veinsmobility 	maxSpeed 	4.5947360364977
scalar Scenario2_SlowSpeed.node[260].veinsmobility 	totalDistance 	5.4853506782262
scalar Scenario2_SlowSpeed.node[260].veinsmobility 	totalCO2Emission 	3.4697538803579
scalar Scenario2_SlowSpeed.node[124].appl 	generatedWSMs 	1
scalar Scenario2_SlowSpeed.node[124].appl 	receivedWSMs 	10
scalar Scenario2_SlowSpeed.node[124].appl 	generatedBSMs 	480
scalar Scenario2_SlowSpeed.node[124].appl 	receivedBSMs 	44387
scalar Scenario2_SlowSpeed.node[124].appl 	generatedWSAs 	0
scalar Scenario2_SlowSpeed.node[124].appl 	receivedWSAs 	0
scalar Scenario2_SlowSpeed.node[124].appl 	delayWSM 	0.000532582931
scalar Scenario2_SlowSpeed.node[124].appl 	Dist_Propa 	616.74081878595
scalar Scenario2_SlowSpeed.node[124].nic.phy80211p 	busyTime 	0.10878933333339
scalar Scenario2_SlowSpeed.node[124].nic.phy80211p 	ncollisions 	3522
scalar Scenario2_SlowSpeed.node[124].nic.mac1609_4 	ReceivedUnicastPackets 	0
scalar Scenario2_SlowSpeed.node[124].nic.mac1609_4 	ReceivedBroadcasts 	44397
scalar Scenario2_SlowSpeed.node[124].nic.mac1609_4 	SentPackets 	481
scalar Scenario2_SlowSpeed.node[124].nic.mac1609_4 	SNIRLostPackets 	5715
scalar Scenario2_SlowSpeed.node[124].nic.mac1609_4 	RXTXLostPackets 	102
scalar Scenario2_SlowSpeed.node[124].nic.mac1609_4 	TotalLostPackets 	5817
scalar Scenario2_SlowSpeed.node[124].nic.mac1609_4 	DroppedPacketsInMac 	0
scalar Scenario2_SlowSpeed.node[124].nic.mac1609_4 	TooLittleTime 	0
scalar Scenario2_SlowSpeed.node[124].nic.mac1609_4 	TimesIntoBackoff 	482
scalar Scenario2_SlowSpeed.node[124].nic.mac1609_4 	SlotsBackoff 	769
scalar Scenario2_SlowSpeed.node[124].nic.mac1609_4 	NumInternalContention 	0
scalar Scenario2_SlowSpeed.node[124].nic.mac1609_4 	totalBusyTime 	5.03600111191
scalar Scenario2_SlowSpeed.node[124].veinsmobility 	startTime 	12
scalar Scenario2_SlowSpeed.node[124].veinsmobility 	totalTime 	48
scalar Scenario2_SlowSpeed.node[124].veinsmobility 	stopTime 	60
scalar Scenario2_SlowSpeed.node[124].veinsmobility 	minSpeed 	3.5142798499626
scalar Scenario2_SlowSpeed.node[124].veinsmobility 	maxSpeed 	7.9931438549119
scalar Scenario2_SlowSpeed.node[124].veinsmobility 	totalDistance 	370.97955073609
scalar Scenario2_SlowSpeed.node[124].veinsmobility 	totalCO2Emission 	79.169155370624
scalar Scenario2_SlowSpeed.node[263].appl 	generatedWSMs 	0
scalar Scenario2_SlowSpeed.node[263].appl 	receivedWSMs 	0
scalar Scenario2_SlowSpeed.node[263].appl 	generatedBSMs 	0
scalar Scenario2_SlowSpeed.node[263].appl 	receivedBSMs 	0
scalar Scenario2_SlowSpeed.node[263].appl 	generatedWSAs 	0
scalar Scenario2_SlowSpeed.node[263].appl 	receivedWSAs 	0
scalar Scenario2_SlowSpeed.node[263].appl 	delayWSM 	-1
scalar Scenario2_SlowSpeed.node[263].appl 	Dist_Propa 	-1
scalar Scenario2_SlowSpeed.node[263].nic.phy80211p 	busyTime 	-nan
scalar Scenario2_SlowSpeed.node[263].nic.phy80211p 	ncollisions 	0
scalar Scenario2_SlowSpeed.node[263].nic.mac1609_4 	ReceivedUnicastPackets 	0
scalar Scenario2_SlowSpeed.node[263].nic.mac1609_4 	ReceivedBroadcasts 	0
scalar Scenario2_SlowSpeed.node[263].nic.mac1609_4 	SentPackets 	0
scalar Scenario2_SlowSpeed.node[263].nic.mac1609_4 	SNIRLostPackets 	0
scalar Scenario2_SlowSpeed.node[263].nic.mac1609_4 	RXTXLostPackets 	0
scalar Scenario2_SlowSpeed.node[263].nic.mac1609_4 	TotalLostPackets 	0
scalar Scenario2_SlowSpeed.node[263].nic.mac1609_4 	DroppedPacketsInMac 	0
scalar Scenario2_SlowSpeed.node[263].nic.mac1609_4 	TooLittleTime 	0
scalar Scenario2_SlowSpeed.node[263].nic.mac1609_4 	TimesIntoBackoff 	0
scalar Scenario2_SlowSpeed.node[263].nic.mac1609_4 	SlotsBackoff 	0
scalar Scenario2_SlowSpeed.node[263].nic.mac1609_4 	NumInternalContention 	0
scalar Scenario2_SlowSpeed.node[263].nic.mac1609_4 	totalBusyTime 	0
scalar Scenario2_SlowSpeed.node[263].veinsmobility 	startTime 	60
scalar Scenario2_SlowSpeed.node[263].veinsmobility 	totalTime 	0
scalar Scenario2_SlowSpeed.node[263].veinsmobility 	stopTime 	60
scalar Scenario2_SlowSpeed.node[263].veinsmobility 	totalDistance 	0
scalar Scenario2_SlowSpeed.node[263].veinsmobility 	totalCO2Emission 	0
scalar Scenario2_SlowSpeed.node[140].appl 	generatedWSMs 	1
scalar Scenario2_SlowSpeed.node[140].appl 	receivedWSMs 	8
scalar Scenario2_SlowSpeed.node[140].appl 	generatedBSMs 	460
scalar Scenario2_SlowSpeed.node[140].appl 	receivedBSMs 	41212
scalar Scenario2_SlowSpeed.node[140].appl 	generatedWSAs 	0
scalar Scenario2_SlowSpeed.node[140].appl 	receivedWSAs 	0
scalar Scenario2_SlowSpeed.node[140].appl 	delayWSM 	0.000532632736
scalar Scenario2_SlowSpeed.node[140].appl 	Dist_Propa 	621.66819419615
scalar Scenario2_SlowSpeed.node[140].nic.phy80211p 	busyTime 	0.10539286956525
scalar Scenario2_SlowSpeed.node[140].nic.phy80211p 	ncollisions 	3302
scalar Scenario2_SlowSpeed.node[140].nic.mac1609_4 	ReceivedUnicastPackets 	0
scalar Scenario2_SlowSpeed.node[140].nic.mac1609_4 	ReceivedBroadcasts 	41220
scalar Scenario2_SlowSpeed.node[140].nic.mac1609_4 	SentPackets 	461
scalar Scenario2_SlowSpeed.node[140].nic.mac1609_4 	SNIRLostPackets 	5321
scalar Scenario2_SlowSpeed.node[140].nic.mac1609_4 	RXTXLostPackets 	4
scalar Scenario2_SlowSpeed.node[140].nic.mac1609_4 	TotalLostPackets 	5325
scalar Scenario2_SlowSpeed.node[140].nic.mac1609_4 	DroppedPacketsInMac 	0
scalar Scenario2_SlowSpeed.node[140].nic.mac1609_4 	TooLittleTime 	0
scalar Scenario2_SlowSpeed.node[140].nic.mac1609_4 	TimesIntoBackoff 	461
scalar Scenario2_SlowSpeed.node[140].nic.mac1609_4 	SlotsBackoff 	708
scalar Scenario2_SlowSpeed.node[140].nic.mac1609_4 	NumInternalContention 	0
scalar Scenario2_SlowSpeed.node[140].nic.mac1609_4 	totalBusyTime 	4.680357098588
scalar Scenario2_SlowSpeed.node[140].veinsmobility 	startTime 	14
scalar Scenario2_SlowSpeed.node[140].veinsmobility 	totalTime 	46
scalar Scenario2_SlowSpeed.node[140].veinsmobility 	stopTime 	60
scalar Scenario2_SlowSpeed.node[140].veinsmobility 	minSpeed 	3.6742379713512
scalar Scenario2_SlowSpeed.node[140].veinsmobility 	maxSpeed 	7.9989194545639
scalar Scenario2_SlowSpeed.node[140].veinsmobility 	totalDistance 	355.82360141942
scalar Scenario2_SlowSpeed.node[140].veinsmobility 	totalCO2Emission 	76.094373444042
scalar Scenario2_SlowSpeed.node[146].appl 	generatedWSMs 	1
scalar Scenario2_SlowSpeed.node[146].appl 	receivedWSMs 	7
scalar Scenario2_SlowSpeed.node[146].appl 	generatedBSMs 	450
scalar Scenario2_SlowSpeed.node[146].appl 	receivedBSMs 	38617
scalar Scenario2_SlowSpeed.node[146].appl 	generatedWSAs 	0
scalar Scenario2_SlowSpeed.node[146].appl 	receivedWSAs 	0
scalar Scenario2_SlowSpeed.node[146].appl 	delayWSM 	0.000532682003
scalar Scenario2_SlowSpeed.node[146].appl 	Dist_Propa 	208.89691029838
scalar Scenario2_SlowSpeed.node[146].nic.phy80211p 	busyTime 	0.10058560000001
scalar Scenario2_SlowSpeed.node[146].nic.phy80211p 	ncollisions 	3001
scalar Scenario2_SlowSpeed.node[146].nic.mac1609_4 	ReceivedUnicastPackets 	0
scalar Scenario2_SlowSpeed.node[146].nic.mac1609_4 	ReceivedBroadcasts 	38624
scalar Scenario2_SlowSpeed.node[146].nic.mac1609_4 	SentPackets 	451
scalar Scenario2_SlowSpeed.node[146].nic.mac1609_4 	SNIRLostPackets 	4842
scalar Scenario2_SlowSpeed.node[146].nic.mac1609_4 	RXTXLostPackets 	4
scalar Scenario2_SlowSpeed.node[146].nic.mac1609_4 	TotalLostPackets 	4846
scalar Scenario2_SlowSpeed.node[146].nic.mac1609_4 	DroppedPacketsInMac 	0
scalar Scenario2_SlowSpeed.node[146].nic.mac1609_4 	TooLittleTime 	0
scalar Scenario2_SlowSpeed.node[146].nic.mac1609_4 	TimesIntoBackoff 	451
scalar Scenario2_SlowSpeed.node[146].nic.mac1609_4 	SlotsBackoff 	703
scalar Scenario2_SlowSpeed.node[146].nic.mac1609_4 	NumInternalContention 	0
scalar Scenario2_SlowSpeed.node[146].nic.mac1609_4 	totalBusyTime 	4.377891098821
scalar Scenario2_SlowSpeed.node[146].veinsmobility 	startTime 	15
scalar Scenario2_SlowSpeed.node[146].veinsmobility 	totalTime 	45
scalar Scenario2_SlowSpeed.node[146].veinsmobility 	stopTime 	60
scalar Scenario2_SlowSpeed.node[146].veinsmobility 	minSpeed 	2.1613891165237
scalar Scenario2_SlowSpeed.node[146].veinsmobility 	maxSpeed 	7.9981589262839
scalar Scenario2_SlowSpeed.node[146].veinsmobility 	totalDistance 	341.80422176181
scalar Scenario2_SlowSpeed.node[146].veinsmobility 	totalCO2Emission 	75.68100848143
scalar Scenario2_SlowSpeed.node[156].appl 	generatedWSMs 	1
scalar Scenario2_SlowSpeed.node[156].appl 	receivedWSMs 	6
scalar Scenario2_SlowSpeed.node[156].appl 	generatedBSMs 	430
scalar Scenario2_SlowSpeed.node[156].appl 	receivedBSMs 	36271
scalar Scenario2_SlowSpeed.node[156].appl 	generatedWSAs 	0
scalar Scenario2_SlowSpeed.node[156].appl 	receivedWSAs 	0
scalar Scenario2_SlowSpeed.node[156].appl 	delayWSM 	0.005767293296
scalar Scenario2_SlowSpeed.node[156].appl 	Dist_Propa 	217.4323864363
scalar Scenario2_SlowSpeed.node[156].nic.phy80211p 	busyTime 	0.098126139534869
scalar Scenario2_SlowSpeed.node[156].nic.phy80211p 	ncollisions 	2591
scalar Scenario2_SlowSpeed.node[156].nic.mac1609_4 	ReceivedUnicastPackets 	0
scalar Scenario2_SlowSpeed.node[156].nic.mac1609_4 	ReceivedBroadcasts 	36277
scalar Scenario2_SlowSpeed.node[156].nic.mac1609_4 	SentPackets 	431
scalar Scenario2_SlowSpeed.node[156].nic.mac1609_4 	SNIRLostPackets 	4255
scalar Scenario2_SlowSpeed.node[156].nic.mac1609_4 	RXTXLostPackets 	8
scalar Scenario2_SlowSpeed.node[156].nic.mac1609_4 	TotalLostPackets 	4263
scalar Scenario2_SlowSpeed.node[156].nic.mac1609_4 	DroppedPacketsInMac 	0
scalar Scenario2_SlowSpeed.node[156].nic.mac1609_4 	TooLittleTime 	0
scalar Scenario2_SlowSpeed.node[156].nic.mac1609_4 	TimesIntoBackoff 	431
scalar Scenario2_SlowSpeed.node[156].nic.mac1609_4 	SlotsBackoff 	613
scalar Scenario2_SlowSpeed.node[156].nic.mac1609_4 	NumInternalContention 	0
scalar Scenario2_SlowSpeed.node[156].nic.mac1609_4 	totalBusyTime 	4.088935203009
scalar Scenario2_SlowSpeed.node[156].veinsmobility 	startTime 	17
scalar Scenario2_SlowSpeed.node[156].veinsmobility 	totalTime 	43
scalar Scenario2_SlowSpeed.node[156].veinsmobility 	stopTime 	60
scalar Scenario2_SlowSpeed.node[156].veinsmobility 	minSpeed 	2.6234599548635
scalar Scenario2_SlowSpeed.node[156].veinsmobility 	maxSpeed 	7.99290909976
scalar Scenario2_SlowSpeed.node[156].veinsmobility 	totalDistance 	328.68115821928
scalar Scenario2_SlowSpeed.node[156].veinsmobility 	totalCO2Emission 	72.447356552333
scalar Scenario2_SlowSpeed.node[163].appl 	generatedWSMs 	1
scalar Scenario2_SlowSpeed.node[163].appl 	receivedWSMs 	5
scalar Scenario2_SlowSpeed.node[163].appl 	generatedBSMs 	410
scalar Scenario2_SlowSpeed.node[163].appl 	receivedBSMs 	33532
scalar Scenario2_SlowSpeed.node[163].appl 	generatedWSAs 	0
scalar Scenario2_SlowSpeed.node[163].appl 	receivedWSAs 	0
scalar Scenario2_SlowSpeed.node[163].appl 	delayWSM 	0.005767342708
scalar Scenario2_SlowSpeed.node[163].appl 	Dist_Propa 	232.23538065645
scalar Scenario2_SlowSpeed.node[163].nic.phy80211p 	busyTime 	0.094589853658508
scalar Scenario2_SlowSpeed.node[163].nic.phy80211p 	ncollisions 	2282
scalar Scenario2_SlowSpeed.node[163].nic.mac1609_4 	ReceivedUnicastPackets 	0
scalar Scenario2_SlowSpeed.node[163].nic.mac1609_4 	ReceivedBroadcasts 	33537
scalar Scenario2_SlowSpeed.node[163].nic.mac1609_4 	SentPackets 	411
scalar Scenario2_SlowSpeed.node[163].nic.mac1609_4 	SNIRLostPackets 	3720
scalar Scenario2_SlowSpeed.node[163].nic.mac1609_4 	RXTXLostPackets 	8
scalar Scenario2_SlowSpeed.node[163].nic.mac1609_4 	TotalLostPackets 	3728
scalar Scenario2_SlowSpeed.node[163].nic.mac1609_4 	DroppedPacketsInMac 	0
scalar Scenario2_SlowSpeed.node[163].nic.mac1609_4 	TooLittleTime 	0
scalar Scenario2_SlowSpeed.node[163].nic.mac1609_4 	TimesIntoBackoff 	411
scalar Scenario2_SlowSpeed.node[163].nic.mac1609_4 	SlotsBackoff 	628
scalar Scenario2_SlowSpeed.node[163].nic.mac1609_4 	NumInternalContention 	0
scalar Scenario2_SlowSpeed.node[163].nic.mac1609_4 	totalBusyTime 	3.769611199143
scalar Scenario2_SlowSpeed.node[163].veinsmobility 	startTime 	19
scalar Scenario2_SlowSpeed.node[163].veinsmobility 	totalTime 	41
scalar Scenario2_SlowSpeed.node[163].veinsmobility 	stopTime 	60
scalar Scenario2_SlowSpeed.node[163].veinsmobility 	minSpeed 	2.9961562340673
scalar Scenario2_SlowSpeed.node[163].veinsmobility 	maxSpeed 	7.9797279175348
scalar Scenario2_SlowSpeed.node[163].veinsmobility 	totalDistance 	313.69993082121
scalar Scenario2_SlowSpeed.node[163].veinsmobility 	totalCO2Emission 	68.902201023075
scalar Scenario2_SlowSpeed.node[173].appl 	generatedWSMs 	1
scalar Scenario2_SlowSpeed.node[173].appl 	receivedWSMs 	5
scalar Scenario2_SlowSpeed.node[173].appl 	generatedBSMs 	390
scalar Scenario2_SlowSpeed.node[173].appl 	receivedBSMs 	31032
scalar Scenario2_SlowSpeed.node[173].appl 	generatedWSAs 	0
scalar Scenario2_SlowSpeed.node[173].appl 	receivedWSAs 	0
scalar Scenario2_SlowSpeed.node[173].appl 	delayWSM 	0.005767388698
scalar Scenario2_SlowSpeed.node[173].appl 	Dist_Propa 	251.81860364305
scalar Scenario2_SlowSpeed.node[173].nic.phy80211p 	busyTime 	0.091621333333312
scalar Scenario2_SlowSpeed.node[173].nic.phy80211p 	ncollisions 	1983
scalar Scenario2_SlowSpeed.node[173].nic.mac1609_4 	ReceivedUnicastPackets 	0
scalar Scenario2_SlowSpeed.node[173].nic.mac1609_4 	ReceivedBroadcasts 	31037
scalar Scenario2_SlowSpeed.node[173].nic.mac1609_4 	SentPackets 	391
scalar Scenario2_SlowSpeed.node[173].nic.mac1609_4 	SNIRLostPackets 	3289
scalar Scenario2_SlowSpeed.node[173].nic.mac1609_4 	RXTXLostPackets 	8
scalar Scenario2_SlowSpeed.node[173].nic.mac1609_4 	TotalLostPackets 	3297
scalar Scenario2_SlowSpeed.node[173].nic.mac1609_4 	DroppedPacketsInMac 	0
scalar Scenario2_SlowSpeed.node[173].nic.mac1609_4 	TooLittleTime 	0
scalar Scenario2_SlowSpeed.node[173].nic.mac1609_4 	TimesIntoBackoff 	391
scalar Scenario2_SlowSpeed.node[173].nic.mac1609_4 	SlotsBackoff 	608
scalar Scenario2_SlowSpeed.node[173].nic.mac1609_4 	NumInternalContention 	0
scalar Scenario2_SlowSpeed.node[173].nic.mac1609_4 	totalBusyTime 	3.476415191065
scalar Scenario2_SlowSpeed.node[173].veinsmobility 	startTime 	21
scalar Scenario2_SlowSpeed.node[173].veinsmobility 	totalTime 	39
scalar Scenario2_SlowSpeed.node[173].veinsmobility 	stopTime 	60
scalar Scenario2_SlowSpeed.node[173].veinsmobility 	minSpeed 	3.5498721347115
scalar Scenario2_SlowSpeed.node[173].veinsmobility 	maxSpeed 	7.9987463180046
scalar Scenario2_SlowSpeed.node[173].veinsmobility 	totalDistance 	299.6724920594
scalar Scenario2_SlowSpeed.node[173].veinsmobility 	totalCO2Emission 	65.29085281091
scalar Scenario2_SlowSpeed.node[185].appl 	generatedWSMs 	1
scalar Scenario2_SlowSpeed.node[185].appl 	receivedWSMs 	5
scalar Scenario2_SlowSpeed.node[185].appl 	generatedBSMs 	370
scalar Scenario2_SlowSpeed.node[185].appl 	receivedBSMs 	28228
scalar Scenario2_SlowSpeed.node[185].appl 	generatedWSAs 	0
scalar Scenario2_SlowSpeed.node[185].appl 	receivedWSAs 	0
scalar Scenario2_SlowSpeed.node[185].appl 	delayWSM 	0.005767436175
scalar Scenario2_SlowSpeed.node[185].appl 	Dist_Propa 	262.22331893195
scalar Scenario2_SlowSpeed.node[185].nic.phy80211p 	busyTime 	0.087195027027015
scalar Scenario2_SlowSpeed.node[185].nic.phy80211p 	ncollisions 	1657
scalar Scenario2_SlowSpeed.node[185].nic.mac1609_4 	ReceivedUnicastPackets 	0
scalar Scenario2_SlowSpeed.node[185].nic.mac1609_4 	ReceivedBroadcasts 	28233
scalar Scenario2_SlowSpeed.node[185].nic.mac1609_4 	SentPackets 	371
scalar Scenario2_SlowSpeed.node[185].nic.mac1609_4 	SNIRLostPackets 	2760
scalar Scenario2_SlowSpeed.node[185].nic.mac1609_4 	RXTXLostPackets 	8
scalar Scenario2_SlowSpeed.node[185].nic.mac1609_4 	TotalLostPackets 	2768
scalar Scenario2_SlowSpeed.node[185].nic.mac1609_4 	DroppedPacketsInMac 	0
scalar Scenario2_SlowSpeed.node[185].nic.mac1609_4 	TooLittleTime 	0
scalar Scenario2_SlowSpeed.node[185].nic.mac1609_4 	TimesIntoBackoff 	371
scalar Scenario2_SlowSpeed.node[185].nic.mac1609_4 	SlotsBackoff 	534
scalar Scenario2_SlowSpeed.node[185].nic.mac1609_4 	NumInternalContention 	0
scalar Scenario2_SlowSpeed.node[185].nic.mac1609_4 	totalBusyTime 	3.149401551627
scalar Scenario2_SlowSpeed.node[185].veinsmobility 	startTime 	23
scalar Scenario2_SlowSpeed.node[185].veinsmobility 	totalTime 	37
scalar Scenario2_SlowSpeed.node[185].veinsmobility 	stopTime 	60
scalar Scenario2_SlowSpeed.node[185].veinsmobility 	minSpeed 	4.0273957115979
scalar Scenario2_SlowSpeed.node[185].veinsmobility 	maxSpeed 	7.9996747244173
scalar Scenario2_SlowSpeed.node[185].veinsmobility 	totalDistance 	284.88252866724
scalar Scenario2_SlowSpeed.node[185].veinsmobility 	totalCO2Emission 	61.759848786299
