file 1781432 1518275574                                         
version 2
run WithoutChSw-WSA-slotted-1-20180210-01:44:36-24834
attr configname WithoutChSw-WSA-slotted
attr datetime 20180210-01:44:36
attr experiment WithoutChSw-WSA-slotted
attr inifile omnetpp.ini
attr iterationvars $0=0.5s
attr iterationvarsf 0.5s-
attr measurement $0=0.5s
attr network Scenario2_SlowSpeed
attr processid 24834
attr repetition 0
attr replication #0
attr resultdir results
attr runnumber 1
attr seedset 1
param **.coreDebug false
param **.debug false
param *.**.nic.mac1609_4.bitrate 6Mbps
param *.**.nic.mac1609_4.txPower 20mW
param *.**.nic.mac1609_4.useServiceChannel false
param *.**.nic.phy80211p.analogueModels "xmldoc(\"config.xml\")"
param *.**.nic.phy80211p.antenna "xmldoc(\"antenna.xml\", \"/root/Antenna[@id='monopole']\")"
param *.**.nic.phy80211p.collectCollisionStatistics true
param *.**.nic.phy80211p.decider "xmldoc(\"config.xml\")"
param *.**.nic.phy80211p.sensitivity -89dBm
param *.**.nic.phy80211p.thermalNoise -110dBm
param *.**.nic.phy80211p.usePropagationDelay true
param *.**.nic.phy80211p.useThermalNoise true
param *.annotations.draw true
param *.connectionManager.drawMaxIntfDist false
param *.connectionManager.maxInterfDist 2600m
param *.connectionManager.sendDirect true
param *.manager.autoShutdown true
param *.manager.host "\"localhost\""
param *.manager.launchConfig "xmldoc(\"mycross.launchd.xml\")"
param *.manager.port 9999
param *.manager.updateInterval 1s
param *.node[*].appl.Slotted1Enabled true
param *.node[*].appl.Slotted_Ns 5
param *.node[*].appl.Slotted_R 500
param *.node[*].appl.Slotted_tau 0.005
param *.node[*].appl.beaconInterval 1s
param *.node[*].appl.dataOnSch false
param *.node[*].appl.headerLength "80 bit"
param *.node[*].appl.sendBeacons true
param *.node[*].appl.sendWSA true
param *.node[*].applType "\"myWaveAppLayer\""
param *.node[*].veinsmobility.x 0
param *.node[*].veinsmobility.y 0
param *.node[*].veinsmobility.z 1.895
param *.node[*].veinsmobilityType.debug true
param *.node[20].appl.Accident_start 30
param *.node[40].veinsmobility.accidentCount 1
param *.node[40].veinsmobility.accidentDuration 40s
param *.node[40].veinsmobility.accidentStart 30s
param *.obstacles.debug false
param *.playgroundSizeX 2500m
param *.playgroundSizeY 2500m
param *.playgroundSizeZ 50m
param *.rsu[*].appl.beaconInterval 0.1s
param *.rsu[*].appl.beaconUserPriority 7
param *.rsu[*].appl.dataOnSch false
param *.rsu[*].appl.dataUserPriority 5
param *.rsu[*].appl.headerLength "80 bit"
param *.rsu[*].appl.sendBeacons false
param *.rsu[*].applType "\"TraCIDemoRSU11p\""
param *.rsu[0].mobility.x 500
param *.rsu[0].mobility.y 500
param *.rsu[0].mobility.z 3
vector 1850  Scenario2_SlowSpeed.node[0].veinsmobility  posx  ETV
1850	103042 1402 2 24019393 1 60 60 516.75 523.35 31283.757721043 16311466.917341
vector 1851  Scenario2_SlowSpeed.node[0].veinsmobility  posy  ETV
1851	101129 1913 2 24019393 1 60 60 294.23861312165 743.39233800759 30642.499191415 16753639.379037
vector 1857  Scenario2_SlowSpeed.node[1].veinsmobility  posx  ETV
1857	112090 1393 2 24019393 1 60 60 516.75 523.35 31293.420871364 16321549.392009
vector 1858  Scenario2_SlowSpeed.node[1].veinsmobility  posy  ETV
1858	110177 1913 2 24019393 1 60 60 315.73881710243 766.73164888826 32004.347903485 18187718.823889
vector 1864  Scenario2_SlowSpeed.node[2].veinsmobility  posx  ETV
1864	121092 1394 2 24019393 1 60 60 516.75 523.35 31331.460872495 16361305.955738
vector 1865  Scenario2_SlowSpeed.node[2].veinsmobility  posy  ETV
1865	119181 1911 2 24019393 1 60 60 434.42206229638 881.60297755782 38914.313167432 26345685.766933
vector 1871  Scenario2_SlowSpeed.node[3].veinsmobility  posx  ETV
1871	202759 1376 2 24019393 1 60 60 516.75 520.05 31150.2 16172377.11
vector 1872  Scenario2_SlowSpeed.node[3].veinsmobility  posy  ETV
1872	200849 1910 2 24019393 1 60 60 60.572694186159 479.85069601971 16565.891355082 5648418.3320794
vector 1878  Scenario2_SlowSpeed.node[4].veinsmobility  posx  ETV
1878	283512 1844 2 24019393 1 60 60 599.95115988335 813.45423024949 41050.263451754 28387760.633873
vector 1879  Scenario2_SlowSpeed.node[4].veinsmobility  posy  ETV
1879	282136 1376 2 24019393 1 60 60 516.75 523.35 31338.3 16368466.41
vector 1885  Scenario2_SlowSpeed.node[5].veinsmobility  posx  ETV
1885	361365 1376 2 24019393 1 60 60 513.45 520.05 31160.1 16182706.77
vector 1886  Scenario2_SlowSpeed.node[5].veinsmobility  posy  ETV
1886	359557 1808 2 24019393 1 60 60 190.72442993538 512.649 23364.299243724 9862736.6915214
vector 1892  Scenario2_SlowSpeed.node[6].veinsmobility  posx  ETV
1892	439509 1376 2 24019393 1 60 60 513.45 516.75 30952.2 15967439.19
vector 1893  Scenario2_SlowSpeed.node[6].veinsmobility  posy  ETV
1893	437600 1909 2 24019393 1 60 60 68.462519944901 267.67541525278 12503.755908424 2848577.310355
vector 1899  Scenario2_SlowSpeed.node[7].veinsmobility  posx  ETV
1899	516898 1403 2 24019393 1 60 60 516.75 523.35 31303.743762663 16332320.360104
vector 1900  Scenario2_SlowSpeed.node[7].veinsmobility  posy  ETV
1900	514985 1913 2 24019393 1 60 60 342.57365298987 791.45377003428 33490.931726447 19807291.596973
vector 1906  Scenario2_SlowSpeed.node[8].veinsmobility  posx  ETV
1906	586344 1376 2 24019393 1 60 60 513.45 520.05 31077.6 16097475.69
vector 1907  Scenario2_SlowSpeed.node[8].veinsmobility  posy  ETV
1907	584436 1908 2 24019393 1 60 60 35.753727539591 468.03277738262 15170.761405011 4931217.3066683
vector 1913  Scenario2_SlowSpeed.node[9].veinsmobility  posx  ETV
1913	658264 1394 2 24019393 1 60 60 513.45 523.35 31211.516764029 16236373.809237
vector 1914  Scenario2_SlowSpeed.node[9].veinsmobility  posy  ETV
1914	656355 1909 2 24019393 1 60 60 205.81504770681 656.9056268389 25421.755367696 11887217.466636
vector 1920  Scenario2_SlowSpeed.node[10].veinsmobility  posx  ETV
1920	725191 1394 2 24019393 1 60 60 516.75 523.35 31324.900561039 16354373.840569
vector 1921  Scenario2_SlowSpeed.node[10].veinsmobility  posy  ETV
1921	723281 1910 2 24019393 1 60 60 385.78360209097 834.10861974063 36070.707932109 22791701.104762
vector 1927  Scenario2_SlowSpeed.node[11].veinsmobility  posx  ETV
1927	787926 1823 2 24019393 1 60 60 410.89183652349 713.72469519187 33679.536072669 19309632.908849
vector 1928  Scenario2_SlowSpeed.node[11].veinsmobility  posy  ETV
1928	786550 1376 2 24019393 1 60 60 520.05 520.05 31203 16227120.15
vector 1934  Scenario2_SlowSpeed.node[12].veinsmobility  posx  ETV
1934	847982 1394 2 24019393 1 60 60 516.75 523.35 31319.932533839 16349189.928491
vector 1935  Scenario2_SlowSpeed.node[12].veinsmobility  posy  ETV
1935	846069 1913 2 24019393 1 60 60 375.57674044154 822.48577296195 35386.64105123 21971466.41253
vector 1941  Scenario2_SlowSpeed.node[13].veinsmobility  posx  ETV
1941	857024 1394 2 24019393 1 60 60 516.75 523.35 31255.459117081 16282005.628686
vector 1942  Scenario2_SlowSpeed.node[13].veinsmobility  posy  ETV
1942	855116 1908 2 24019393 1 60 60 248.56088949988 698.93252344183 27941.192548343 14127570.28298
vector 1948  Scenario2_SlowSpeed.node[14].veinsmobility  posx  ETV
1948	865711 1376 2 24019393 1 60 60 513.45 520.05 31137 16158756.69
vector 1949  Scenario2_SlowSpeed.node[14].veinsmobility  posy  ETV
1949	863843 1868 2 24019393 1 60 60 131.4836883334 498.645 20442.428704591 7898844.6956918
vector 1955  Scenario2_SlowSpeed.node[15].veinsmobility  posx  ETV
1955	874425 1376 2 24019393 1 60 60 513.45 516.75 30995.1 16011634.77
vector 1956  Scenario2_SlowSpeed.node[15].veinsmobility  posy  ETV
1956	872526 1899 2 24019393 1 60 60 392.33162010632 482.141 27124.87702538 12292584.566069
vector 1962  Scenario2_SlowSpeed.node[16].veinsmobility  posx  ETV
1962	882924 1376 2 24019393 1 60 60 513.45 520.05 31130.4 16151892.03
vector 1963  Scenario2_SlowSpeed.node[16].veinsmobility  posy  ETV
1963	881069 1855 2 24019393 1 60 60 179.64788603307 502.146 21824.377525475 8666885.0229904
vector 1969  Scenario2_SlowSpeed.node[17].veinsmobility  posx  ETV
1969	891691 1376 2 24019393 1 60 60 513.45 513.45 30807 15817854.15
vector 1970  Scenario2_SlowSpeed.node[17].veinsmobility  posy  ETV
1970	889778 1913 2 24019393 1 60 60 121.43074395185 430.38532741005 17561.591831176 5762892.7140146
vector 1976  Scenario2_SlowSpeed.node[18].veinsmobility  posx  ETV
1976	900713 1394 2 24019393 1 60 60 516.75 523.35 31370.552240964 16401984.668656
vector 1977  Scenario2_SlowSpeed.node[18].veinsmobility  posy  ETV
1977	898809 1904 2 24019393 1 60 60 489.37302299786 935.95083005978 42163.24425749 30740374.102045
vector 1983  Scenario2_SlowSpeed.node[19].veinsmobility  posx  ETV
1983	909766 1394 2 24019393 1 60 60 516.75 523.35 31364.350204589 16395513.689799
vector 1984  Scenario2_SlowSpeed.node[19].veinsmobility  posy  ETV
1984	907859 1907 2 24019393 1 60 60 473.91505634131 921.24367414173 41272.924510033 29504391.147282
vector 1990  Scenario2_SlowSpeed.node[20].veinsmobility  posx  ETV
1990	918692 1376 2 24019393 1 60 60 513.45 520.05 31074.3 16094054.25
vector 1991  Scenario2_SlowSpeed.node[20].veinsmobility  posy  ETV
1991	916786 1906 2 24019393 1 60 60 56.592933223698 474.45022892251 16033.794381827 5329999.50153
vector 1997  Scenario2_SlowSpeed.node[21].veinsmobility  posx  ETV
1997	927118 1376 2 24019393 1 60 60 513.45 516.75 30995.1 16011634.77
vector 1998  Scenario2_SlowSpeed.node[21].veinsmobility  posy  ETV
1998	925211 1907 2 24019393 1 60 60 384.39981740589 457.09525139228 26250.117679588 11504862.557763
vector 2004  Scenario2_SlowSpeed.node[22].veinsmobility  posx  ETV
2004	935887 1376 2 24019393 1 60 60 513.45 513.45 30807 15817854.15
vector 2005  Scenario2_SlowSpeed.node[22].veinsmobility  posy  ETV
2005	933977 1910 2 24019393 1 60 60 166.11287157754 473.10467747693 20476.806041194 7564086.0523695
vector 2011  Scenario2_SlowSpeed.node[23].veinsmobility  posx  ETV
2011	944468 1784 2 24019393 1 60 60 159.39363870746 513.45 22726.399145568 9448102.4560091
vector 2012  Scenario2_SlowSpeed.node[23].veinsmobility  posy  ETV
2012	942959 1509 2 24019393 1 60 60 438.5913538713 523.35 30627.146201415 15673941.545793
vector 2018  Scenario2_SlowSpeed.node[24].veinsmobility  posx  ETV
2018	953852 1394 2 24019393 1 60 60 516.75 520.05 31176.042539177 16199167.214195
vector 2019  Scenario2_SlowSpeed.node[24].veinsmobility  posy  ETV
2019	951948 1904 2 24019393 1 60 60 495.32224281049 925.8852956041 41666.10699801 30003429.589629
vector 2025  Scenario2_SlowSpeed.node[25].veinsmobility  posx  ETV
2025	961716 1802 2 24019393 1 60 60 540.27004600486 702.65942375412 37026.981671915 22976833.502121
vector 2026  Scenario2_SlowSpeed.node[25].veinsmobility  posy  ETV
2026	960340 1376 2 24019393 1 60 60 516.75 523.35 31344.9 16375331.07
vector 2032  Scenario2_SlowSpeed.node[26].veinsmobility  posx  ETV
2032	970560 1376 2 24019393 1 60 60 513.45 516.75 30978.6 15994636.47
vector 2033  Scenario2_SlowSpeed.node[26].veinsmobility  posy  ETV
2033	968661 1899 2 24019393 1 60 60 236.87823661944 376.72521346992 20228.751836322 6920504.2989876
vector 2039  Scenario2_SlowSpeed.node[27].veinsmobility  posx  ETV
2039	979446 1376 2 24019393 1 60 60 513.45 516.75 30965.4 15981037.83
vector 2040  Scenario2_SlowSpeed.node[27].veinsmobility  posy  ETV
2040	977535 1911 2 24019393 1 60 60 146.70164613789 331.9843867395 16555.487018339 4764853.4206482
vector 2046  Scenario2_SlowSpeed.node[28].veinsmobility  posx  ETV
2046	988429 1394 2 24019393 1 60 60 513.45 523.35 31206.585208166 16231446.243152
vector 2047  Scenario2_SlowSpeed.node[28].veinsmobility  posy  ETV
2047	986522 1907 2 24019393 1 60 60 254.80712876699 685.08606541078 27326.406103735 13482902.495474
vector 2053  Scenario2_SlowSpeed.node[29].veinsmobility  posx  ETV
2053	996637 1856 2 24019393 1 60 60 618.76663042405 833.03162283865 42110.147961155 29877767.735926
vector 2054  Scenario2_SlowSpeed.node[29].veinsmobility  posy  ETV
2054	995261 1376 2 24019393 1 60 60 516.75 523.35 31338.3 16368466.41
vector 2060  Scenario2_SlowSpeed.node[30].veinsmobility  posx  ETV
2060	1005583 1376 2 24019393 1 60 60 516.75 523.35 31328.4 16358049.63
vector 2061  Scenario2_SlowSpeed.node[30].veinsmobility  posy  ETV
2061	1003752 1831 2 24019393 1 60 60 172.43852714971 512.649 22387.642023081 9202434.343093
vector 2067  Scenario2_SlowSpeed.node[31].veinsmobility  posx  ETV
2067	1014571 1394 2 24019393 1 60 60 513.45 523.35 31292.088152967 16320355.250482
vector 2068  Scenario2_SlowSpeed.node[31].veinsmobility  posy  ETV
2068	1012663 1908 2 24019393 1 60 60 374.98519054212 810.75533115566 34762.971560264 21213262.957615
vector 2074  Scenario2_SlowSpeed.node[32].veinsmobility  posx  ETV
2074	1023289 1376 2 24019393 1 60 60 513.45 516.75 30985.2 16001435.79
vector 2075  Scenario2_SlowSpeed.node[32].veinsmobility  posy  ETV
2075	1021377 1912 2 24019393 1 60 60 347.66844893167 422.98754817665 24184.200738335 9776643.3343998
vector 2081  Scenario2_SlowSpeed.node[33].veinsmobility  posx  ETV
2081	1032292 1403 2 24019393 1 60 60 513.45 523.35 31339.927580978 16370226.833658
vector 2082  Scenario2_SlowSpeed.node[33].veinsmobility  posy  ETV
2082	1030382 1910 2 24019393 1 60 60 478.50692365784 909.48459068139 40660.581732583 28632090.458122
vector 2088  Scenario2_SlowSpeed.node[34].veinsmobility  posx  ETV
2088	1041288 1394 2 24019393 1 60 60 513.45 523.35 31255.711488488 16282508.741343
vector 2089  Scenario2_SlowSpeed.node[34].veinsmobility  posy  ETV
2089	1039383 1905 2 24019393 1 60 60 320.59025162323 755.0923942404 31477.371973226 17566557.603168
vector 2095  Scenario2_SlowSpeed.node[35].veinsmobility  posx  ETV
2095	1056523 1566 2 24019393 1 60 60 516.75 547.54204633712 31615.638226368 16662749.779338
vector 2096  Scenario2_SlowSpeed.node[35].veinsmobility  posy  ETV
2096	1054996 1527 2 24019393 1 60 60 523.35 608.43846603479 31928.898182496 17016315.890299
vector 2102  Scenario2_SlowSpeed.node[36].veinsmobility  posx  ETV
2102	1072953 1746 2 24019393 1 60 60 399.28367481584 636.19684408815 31576.878639775 16799236.110587
vector 2103  Scenario2_SlowSpeed.node[36].veinsmobility  posy  ETV
2103	1071577 1376 2 24019393 1 60 60 516.75 520.05 31153.5 16175798.55
vector 2109  Scenario2_SlowSpeed.node[37].veinsmobility  posx  ETV
2109	1090227 1911 2 24019393 1 60 60 527.62296487143 954.16631392303 45474.896367117 35509180.608668
vector 2110  Scenario2_SlowSpeed.node[37].veinsmobility  posy  ETV
2110	1088851 1376 2 24019393 1 60 60 516.75 516.75 31005 16021833.75
vector 2116  Scenario2_SlowSpeed.node[38].veinsmobility  posx  ETV
2116	1134760 1403 2 24019393 1 60 60 513.45 523.35 31339.976537831 16370212.756087
vector 2117  Scenario2_SlowSpeed.node[38].veinsmobility  posy  ETV
2117	1132854 1906 2 24019393 1 60 60 445.26465031937 894.5247641239 39668.520256088 27341276.928439
vector 2123  Scenario2_SlowSpeed.node[39].veinsmobility  posx  ETV
2123	1177550 1781 2 24019393 1 60 60 519.05200000267 679.690304252 35786.331186505 21447888.896086
vector 2124  Scenario2_SlowSpeed.node[39].veinsmobility  posy  ETV
2124	1176156 1394 2 24019393 1 60 60 516.75 525.08038673738 31366.439745138 16397749.035562
vector 2130  Scenario2_SlowSpeed.node[40].veinsmobility  posx  ETV
2130	1228872 1376 2 24019393 1 60 60 513.45 516.75 30991.8 16008235.11
vector 2131  Scenario2_SlowSpeed.node[40].veinsmobility  posy  ETV
2131	1226959 1913 2 24019393 1 60 60 303.43683106399 398.56472910319 22891.002780475 8780075.0126412
vector 2137  Scenario2_SlowSpeed.node[41].veinsmobility  posx  ETV
2137	1305019 1882 2 24019393 1 60 60 421.78162583726 742.98246775308 35513.018394445 21566825.26856
vector 2138  Scenario2_SlowSpeed.node[41].veinsmobility  posy  ETV
2138	1303643 1376 2 24019393 1 60 60 516.75 523.35 31222.8 16247823.03
vector 2144  Scenario2_SlowSpeed.node[42].veinsmobility  posx  ETV
2144	1322806 1392 2 24019393 1 60 60 513.45 523.35 31196.469225285 16220956.724823
vector 2145  Scenario2_SlowSpeed.node[42].veinsmobility  posy  ETV
2145	1320896 1910 2 24019393 1 60 60 217.79685306714 668.61500940007 26120.417404406 12487512.272376
vector 2151  Scenario2_SlowSpeed.node[43].veinsmobility  posx  ETV
2151	1410639 1394 2 24019393 1 60 60 516.75 520.05 31150.28518271 16172462.202172
vector 2152  Scenario2_SlowSpeed.node[43].veinsmobility  posy  ETV
2152	1408728 1911 2 24019393 1 60 60 478.13553341236 862.11326188217 38423.782349193 25488305.494757
vector 2158  Scenario2_SlowSpeed.node[44].veinsmobility  posx  ETV
2158	1473352 1889 2 24019393 1 60 60 410.6894345608 737.60624042032 35231.534067116 21274069.180947
vector 2159  Scenario2_SlowSpeed.node[44].veinsmobility  posy  ETV
2159	1471976 1376 2 24019393 1 60 60 516.75 516.75 31005 16021833.75
vector 2165  Scenario2_SlowSpeed.node[45].veinsmobility  posx  ETV
2165	1496812 1710 2 24019393 1 60 60 516.75 602.28017179907 33517.640443681 18759336.746346
vector 2166  Scenario2_SlowSpeed.node[45].veinsmobility  posy  ETV
2166	1495373 1439 2 24019393 1 60 60 520.05 565.50220465494 31529.993495231 16572844.046566
vector 2172  Scenario2_SlowSpeed.node[46].veinsmobility  posx  ETV
2172	1534695 1887 2 24019393 1 60 60 636.31746244742 880.35821271708 44144.967466206 32938171.439285
vector 2173  Scenario2_SlowSpeed.node[46].veinsmobility  posy  ETV
2173	1533319 1376 2 24019393 1 60 60 516.75 523.35 31315.2 16344450.99
vector 2179  Scenario2_SlowSpeed.node[47].veinsmobility  posx  ETV
2179	136865 1881 22905 24019393 2 60 59 669.60684745749 935.14495707983 46145.508758947 36638047.035787
vector 2180  Scenario2_SlowSpeed.node[47].veinsmobility  posy  ETV
2180	135505 1360 22905 24019393 2 60 59 520.05 523.35 30844.65 16125385.9275
vector 2186  Scenario2_SlowSpeed.node[48].veinsmobility  posx  ETV
2186	224674 1887 22905 24019393 2 60 59 422.27089686306 753.46336144107 35162.527046712 21523533.035447
vector 2187  Scenario2_SlowSpeed.node[48].veinsmobility  posy  ETV
2187	223314 1360 22905 24019393 2 60 59 516.75 520.05 30597.15 15867710.7075
vector 2193  Scenario2_SlowSpeed.node[49].veinsmobility  posx  ETV
2193	260995 1890 22905 24019393 2 60 59 567.43445309572 1011.5924248464 47023.908419444 38543449.726207
vector 2194  Scenario2_SlowSpeed.node[49].veinsmobility  posy  ETV
2194	259635 1360 22905 24019393 2 60 59 516.75 516.75 30488.25 15754803.1875
vector 2200  Scenario2_SlowSpeed.node[50].veinsmobility  posx  ETV
2200	325767 1632 22905 24019393 2 60 59 516.75 598.60367962628 32178.806937857 17581657.476732
vector 2201  Scenario2_SlowSpeed.node[50].veinsmobility  posy  ETV
2201	324309 1458 22905 24019393 2 60 59 520.05 587.42482004661 31150.85339238 16459131.411417
vector 2207  Scenario2_SlowSpeed.node[51].veinsmobility  posx  ETV
2207	397194 1890 22905 24019393 2 60 59 548.46950807696 990.38123255875 45890.145996054 36750545.630566
vector 2208  Scenario2_SlowSpeed.node[51].veinsmobility  posy  ETV
2208	395834 1360 22905 24019393 2 60 59 516.75 516.75 30488.25 15754803.1875
vector 2214  Scenario2_SlowSpeed.node[52].veinsmobility  posx  ETV
2214	479422 1722 22905 24019393 2 60 59 516.75 653.83256071001 34115.147469914 19804995.036443
vector 2215  Scenario2_SlowSpeed.node[52].veinsmobility  posy  ETV
2215	478026 1396 22905 24019393 2 60 59 516.75 544.70102534718 30892.319374333 16175972.614301
vector 2221  Scenario2_SlowSpeed.node[53].veinsmobility  posx  ETV
2221	501051 1875 22905 24019393 2 60 59 653.59442820606 921.2992645168 45171.814322754 35136098.16767
vector 2222  Scenario2_SlowSpeed.node[53].veinsmobility  posy  ETV
2222	499691 1360 22905 24019393 2 60 59 516.75 523.35 30791.85 16070512.2075
vector 2228  Scenario2_SlowSpeed.node[54].veinsmobility  posx  ETV
2228	623545 1884 22905 24019393 2 60 59 685.16199737133 1020.1880544997 49958.883685048 43129912.034744
vector 2229  Scenario2_SlowSpeed.node[54].veinsmobility  posy  ETV
2229	622185 1360 22905 24019393 2 60 59 516.75 523.35 30752.25 16029258.9075
vector 2235  Scenario2_SlowSpeed.node[55].veinsmobility  posx  ETV
2235	643238 1804 22905 24019393 2 60 59 580.71264602425 769.92118992672 38800.984537114 25727152.09324
vector 2236  Scenario2_SlowSpeed.node[55].veinsmobility  posy  ETV
2236	641878 1360 22905 24019393 2 60 59 516.75 523.35 30824.85 16104857.2875
vector 2242  Scenario2_SlowSpeed.node[56].veinsmobility  posx  ETV
2242	694405 1888 22905 24019393 2 60 59 537.42020966734 964.33815418211 45126.636822605 35530449.740055
vector 2243  Scenario2_SlowSpeed.node[56].veinsmobility  posy  ETV
2243	693045 1360 22905 24019393 2 60 59 516.75 520.05 30646.65 15919032.3075
vector 2249  Scenario2_SlowSpeed.node[57].veinsmobility  posx  ETV
2249	744023 1886 22905 24019393 2 60 59 485.90289098143 912.63740337742 42054.265460099 30980762.286219
vector 2250  Scenario2_SlowSpeed.node[57].veinsmobility  posy  ETV
2250	742663 1360 22905 24019393 2 60 59 516.75 520.05 30663.15 15936139.5075
vector 2256  Scenario2_SlowSpeed.node[58].veinsmobility  posx  ETV
2256	809936 1618 22905 24019393 2 60 59 399.04155236176 535.57061431977 30036.845269318 15369378.648013
vector 2257  Scenario2_SlowSpeed.node[58].veinsmobility  posy  ETV
2257	808576 1360 22905 24019393 2 60 59 516.75 516.75 30488.25 15754803.1875
vector 2263  Scenario2_SlowSpeed.node[59].veinsmobility  posx  ETV
2263	1049147 1360 22905 24019393 2 60 59 513.45 516.75 30475.05 15741204.5475
vector 2264  Scenario2_SlowSpeed.node[59].veinsmobility  posy  ETV
2264	1047262 1885 22905 24019393 2 60 59 297.18041824831 390.68614416194 21836.360708824 8124731.0067029
vector 2270  Scenario2_SlowSpeed.node[60].veinsmobility  posx  ETV
2270	1065384 1360 22905 24019393 2 60 59 516.75 520.05 30643.35 15915610.8675
vector 2271  Scenario2_SlowSpeed.node[60].veinsmobility  posy  ETV
2271	1063517 1867 22905 24019393 2 60 59 118.28516280949 491.643 19137.386308384 7128703.4473263
vector 2277  Scenario2_SlowSpeed.node[61].veinsmobility  posx  ETV
2277	1081794 1360 22905 24019393 2 60 59 513.45 516.75 30478.35 15744604.2075
vector 2278  Scenario2_SlowSpeed.node[61].veinsmobility  posy  ETV
2278	1079911 1883 22905 24019393 2 60 59 365.29531542682 447.11711984918 25252.368181522 10836311.308468
vector 2284  Scenario2_SlowSpeed.node[62].veinsmobility  posx  ETV
2284	1099487 1360 22905 24019393 2 60 59 513.45 520.05 30626.85 15898569.0075
vector 2285  Scenario2_SlowSpeed.node[62].veinsmobility  posy  ETV
2285	1097615 1872 22905 24019393 2 60 59 103.3665930651 488.142 18276.206223008 6622413.5877197
vector 2291  Scenario2_SlowSpeed.node[63].veinsmobility  posx  ETV
2291	1108185 1360 22905 24019393 2 60 59 513.45 516.75 30442.05 15707207.9475
vector 2292  Scenario2_SlowSpeed.node[63].veinsmobility  posy  ETV
2292	1106304 1881 22905 24019393 2 60 59 116.69069394571 281.6089132419 13697.535223312 3336626.5672313
vector 2298  Scenario2_SlowSpeed.node[64].veinsmobility  posx  ETV
2298	1116928 1360 22905 24019393 2 60 59 513.45 516.75 30438.75 15703808.2875
vector 2299  Scenario2_SlowSpeed.node[64].veinsmobility  posy  ETV
2299	1115042 1886 22905 24019393 2 60 59 88.4739741455 272.40137819293 12877.554459534 3008773.726304
vector 2305  Scenario2_SlowSpeed.node[65].veinsmobility  posx  ETV
2305	1125726 1386 22905 24019393 2 60 59 513.45 520.05 30617.822938949 15889184.152808
vector 2306  Scenario2_SlowSpeed.node[65].veinsmobility  posy  ETV
2306	1123838 1888 22905 24019393 2 60 59 466.98145321813 838.78803306537 36756.627601274 23705962.568645
vector 2312  Scenario2_SlowSpeed.node[66].veinsmobility  posx  ETV
2312	1143596 1360 22905 24019393 2 60 59 516.75 520.05 30633.45 15905346.5475
vector 2313  Scenario2_SlowSpeed.node[66].veinsmobility  posy  ETV
2313	1141721 1875 22905 24019393 2 60 59 83.67403447679 484.32999338627 17244.170849768 6041551.4008748
vector 2319  Scenario2_SlowSpeed.node[67].veinsmobility  posx  ETV
2319	1152446 1376 22905 24019393 2 60 59 516.75 523.35 30768.846307874 16046442.210583
vector 2320  Scenario2_SlowSpeed.node[67].veinsmobility  posy  ETV
2320	1150567 1879 22905 24019393 2 60 59 359.1020480215 779.69558359423 32614.027120143 19034348.717509
vector 2326  Scenario2_SlowSpeed.node[68].veinsmobility  posx  ETV
2326	1161097 1360 22905 24019393 2 60 59 513.45 520.05 30488.25 15755020.9875
vector 2327  Scenario2_SlowSpeed.node[68].veinsmobility  posy  ETV
2327	1159213 1884 22905 24019393 2 60 59 207.28348604924 365.90154988942 18282.081216097 5788960.1264361
vector 2333  Scenario2_SlowSpeed.node[69].veinsmobility  posx  ETV
2333	1169785 1387 22905 24019393 2 60 59 513.45 520.05 30589.745704853 15860073.770151
vector 2334  Scenario2_SlowSpeed.node[69].veinsmobility  posy  ETV
2334	1167901 1884 22905 24019393 2 60 59 462.27490013218 768.9743445413 33963.106641076 20080665.4702
vector 2340  Scenario2_SlowSpeed.node[70].veinsmobility  posx  ETV
2340	1186843 1377 22905 24019393 2 60 59 513.45 523.35 30715.55217616 15991139.773744
vector 2341  Scenario2_SlowSpeed.node[70].veinsmobility  posy  ETV
2341	1184958 1885 22905 24019393 2 60 59 281.52680924153 714.61079449942 28687.011106875 14988416.193687
vector 2347  Scenario2_SlowSpeed.node[71].veinsmobility  posx  ETV
2347	1550443 1789 22905 24019393 2 60 59 560.64214990621 716.74257684651 37283.720872993 23684062.839248
vector 2348  Scenario2_SlowSpeed.node[71].veinsmobility  posy  ETV
2348	1549083 1360 22905 24019393 2 60 59 516.75 523.35 30811.65 16091171.5275
vector 1852  Scenario2_SlowSpeed.node[0].veinsmobility  speed  ETV
1852	99243 1886 22905 24019393 2 60 59 4.0518554631622 7.9879484311235 460.0414651717 3605.0777638341
vector 1859  Scenario2_SlowSpeed.node[1].veinsmobility  speed  ETV
1859	108295 1882 22905 24019393 2 60 59 3.7822135175928 7.9984821532085 462.10073583584 3639.8243890941
vector 1866  Scenario2_SlowSpeed.node[2].veinsmobility  speed  ETV
1866	117302 1879 22905 24019393 2 60 59 3.897912896338 7.9983026179066 458.34535226208 3584.9509262523
vector 1873  Scenario2_SlowSpeed.node[3].veinsmobility  speed  ETV
1873	198963 1886 22905 24019393 2 60 59 0.57513828796073 7.9971425564191 419.27609492304 3194.7399817192
vector 1880  Scenario2_SlowSpeed.node[4].veinsmobility  speed  ETV
1880	280335 1801 22905 24019393 2 60 59 0 7.998761665849 222.34504015392 1425.5514012208
vector 1887  Scenario2_SlowSpeed.node[5].veinsmobility  speed  ETV
1887	357846 1711 22905 24019393 2 60 59 0 7.9973915574094 320.87702098957 2467.639705048
vector 1894  Scenario2_SlowSpeed.node[6].veinsmobility  speed  ETV
1894	435682 1918 22905 24019393 2 60 59 4.6617527336404e-14 7.997091273223 199.80163674071 1261.2823637531
vector 1901  Scenario2_SlowSpeed.node[7].veinsmobility  speed  ETV
1901	513097 1888 22905 24019393 2 60 59 3.6521305802925 7.9997695896658 459.94559022791 3612.5457911568
vector 1908  Scenario2_SlowSpeed.node[8].veinsmobility  speed  ETV
1908	582548 1888 22905 24019393 2 60 59 1.8682373661303 7.9992279617442 434.15412323641 3316.7939295762
vector 1915  Scenario2_SlowSpeed.node[9].veinsmobility  speed  ETV
1915	654472 1883 22905 24019393 2 60 59 3.932047590691 7.9987972018146 462.13619424385 3638.8506309445
vector 1922  Scenario2_SlowSpeed.node[10].veinsmobility  speed  ETV
1922	721396 1885 22905 24019393 2 60 59 3.6504235994233 7.9996732960711 459.00156087205 3595.0809512593
vector 1929  Scenario2_SlowSpeed.node[11].veinsmobility  speed  ETV
1929	784814 1736 22905 24019393 2 60 59 0 7.9958774312795 313.81983599692 2298.1583527377
vector 1936  Scenario2_SlowSpeed.node[12].veinsmobility  speed  ETV
1936	844182 1887 22905 24019393 2 60 59 3.8852701568365 7.9989470190112 457.31240300307 3567.076709663
vector 1943  Scenario2_SlowSpeed.node[13].veinsmobility  speed  ETV
1943	853230 1886 22905 24019393 2 60 59 3.7319341546602 7.9997326215007 461.36810938502 3629.4254866862
vector 1950  Scenario2_SlowSpeed.node[14].veinsmobility  speed  ETV
1950	862035 1808 22905 24019393 2 60 59 0 7.9907930444996 366.07626261118 2792.0624676114
vector 1957  Scenario2_SlowSpeed.node[15].veinsmobility  speed  ETV
1957	870627 1899 22905 24019393 2 60 59 0 7.9410842300532 88.479327618153 328.38466480339
vector 1964  Scenario2_SlowSpeed.node[16].veinsmobility  speed  ETV
1964	879291 1778 22905 24019393 2 60 59 0 7.9883575403341 321.51119447947 2299.8665503757
vector 1971  Scenario2_SlowSpeed.node[17].veinsmobility  speed  ETV
1971	887885 1893 22905 24019393 2 60 59 0.10028231267116 7.9826764320379 308.81959896741 2054.3431918938
vector 1978  Scenario2_SlowSpeed.node[18].veinsmobility  speed  ETV
1978	896925 1884 22905 24019393 2 60 59 2.6377290236039 7.9961111091031 457.83727329159 3593.0379918967
vector 1985  Scenario2_SlowSpeed.node[19].veinsmobility  speed  ETV
1985	905971 1888 22905 24019393 2 60 59 2.7469869994252 7.9968347064173 458.76566922429 3603.604560489
vector 1992  Scenario2_SlowSpeed.node[20].veinsmobility  speed  ETV
1992	914901 1885 22905 24019393 2 60 59 1.1784753591298 7.9991497904691 418.02976602123 3132.7521892799
vector 1999  Scenario2_SlowSpeed.node[21].veinsmobility  speed  ETV
1999	923452 1759 22905 24019393 2 60 59 0 7.8660231890738 72.756088588124 273.67354248521
vector 2006  Scenario2_SlowSpeed.node[22].veinsmobility  speed  ETV
2006	932084 1893 22905 24019393 2 60 59 0.21084801220309 7.9827426496916 315.16868092143 2119.3348809669
vector 2013  Scenario2_SlowSpeed.node[23].veinsmobility  speed  ETV
2013	941079 1880 22905 24019393 2 60 59 3.9197721995389 7.9969533819752 447.88903412011 3446.6967442743
vector 2020  Scenario2_SlowSpeed.node[24].veinsmobility  speed  ETV
2020	950070 1878 22905 24019393 2 60 59 2.8351305318164 7.9962929220102 442.11086139348 3400.3069055179
vector 2027  Scenario2_SlowSpeed.node[25].veinsmobility  speed  ETV
2027	958638 1702 22905 24019393 2 60 59 0 7.9924964052998 173.83294122206 992.89187190606
vector 2034  Scenario2_SlowSpeed.node[26].veinsmobility  speed  ETV
2034	966905 1756 22905 24019393 2 60 59 0 7.9688545951503 141.70523573527 712.29331777005
vector 2041  Scenario2_SlowSpeed.node[27].veinsmobility  speed  ETV
2041	975670 1865 22905 24019393 2 60 59 0 7.9811686708638 186.85151114147 1170.7986343793
vector 2048  Scenario2_SlowSpeed.node[28].veinsmobility  speed  ETV
2048	984638 1884 22905 24019393 2 60 59 2.7307990763654 7.9997683376307 442.38080541613 3407.0372010808
vector 2055  Scenario2_SlowSpeed.node[29].veinsmobility  speed  ETV
2055	993443 1818 22905 24019393 2 60 59 0 7.9938152769115 221.99426385937 1406.0907861502
vector 2062  Scenario2_SlowSpeed.node[30].veinsmobility  speed  ETV
2062	1002017 1735 22905 24019393 2 60 59 0 7.9998285272717 339.82711110053 2609.4020121708
vector 2069  Scenario2_SlowSpeed.node[31].veinsmobility  speed  ETV
2069	1010778 1885 22905 24019393 2 60 59 2.6856465938386 7.9889043135103 447.5498680743 3442.6181160141
vector 2076  Scenario2_SlowSpeed.node[32].veinsmobility  speed  ETV
2076	1019514 1863 22905 24019393 2 60 59 0 5.3769411631288 74.553841898209 205.25364727383
vector 2083  Scenario2_SlowSpeed.node[33].veinsmobility  speed  ETV
2083	1028496 1886 22905 24019393 2 60 59 0.7030855698499 7.9954836057662 442.72608811734 3430.8897134721
vector 2090  Scenario2_SlowSpeed.node[34].veinsmobility  speed  ETV
2090	1037494 1889 22905 24019393 2 60 59 3.8002238431822 7.9991343247099 445.59908614951 3412.9800235886
vector 2097  Scenario2_SlowSpeed.node[35].veinsmobility  speed  ETV
2097	1053521 1475 22905 24019393 2 60 59 0 7.9990572348982 124.05654795491 748.45364400555
vector 2104  Scenario2_SlowSpeed.node[36].veinsmobility  speed  ETV
2104	1069974 1603 22905 24019393 2 60 59 0 7.9981709773303 247.59795285184 1839.9756855605
vector 2111  Scenario2_SlowSpeed.node[37].veinsmobility  speed  ETV
2111	1086963 1888 22905 24019393 2 60 59 3.7534727095737 7.9941820279253 436.63195047943 3319.0501110986
vector 2118  Scenario2_SlowSpeed.node[38].veinsmobility  speed  ETV
2118	1130968 1886 22905 24019393 2 60 59 3.8436146157379 7.9995381524297 460.00610814263 3612.8548868763
vector 2125  Scenario2_SlowSpeed.node[39].veinsmobility  speed  ETV
2125	1174480 1676 22905 24019393 2 60 59 0 7.9846085055731 171.82766840608 986.339232857
vector 2132  Scenario2_SlowSpeed.node[40].veinsmobility  speed  ETV
2132	1225484 1475 22905 24019393 2 60 59 0 7.9595379156969 94.536629295323 483.91941066281
vector 2139  Scenario2_SlowSpeed.node[41].veinsmobility  speed  ETV
2139	1301823 1820 22905 24019393 2 60 59 0 7.9958217919152 331.59952531906 2402.1701557578
vector 2146  Scenario2_SlowSpeed.node[42].veinsmobility  speed  ETV
2146	1319012 1884 22905 24019393 2 60 59 3.9557966042657 7.9989277348551 462.17998322897 3640.4528159344
vector 2153  Scenario2_SlowSpeed.node[43].veinsmobility  speed  ETV
2153	1406841 1887 22905 24019393 2 60 59 0.46801411565994 7.9968504411075 395.93495235244 2946.5958960716
vector 2160  Scenario2_SlowSpeed.node[44].veinsmobility  speed  ETV
2160	1470127 1849 22905 24019393 2 60 59 0 7.9974273738777 337.76737938756 2414.6017777255
vector 2167  Scenario2_SlowSpeed.node[45].veinsmobility  speed  ETV
2167	1493774 1599 22905 24019393 2 60 59 0 7.9854954476468 135.56050270681 739.53500273705
vector 2174  Scenario2_SlowSpeed.node[46].veinsmobility  speed  ETV
2174	1531461 1858 22905 24019393 2 60 59 0 7.999651148105 251.06883451607 1678.0861424699
vector 2354  Scenario2_SlowSpeed.node[72].veinsmobility  posx  ETV
2354	1195190 1805 72778 24019393 3 60 58 109.25704685183 513.45 19283.218663096 7367182.0762
vector 2355  Scenario2_SlowSpeed.node[72].veinsmobility  posy  ETV
2355	1193787 1403 72778 24019393 3 60 58 489.73864672193 523.35 30197.032226153 15725593.858103
vector 2361  Scenario2_SlowSpeed.node[73].veinsmobility  posx  ETV
2361	1203756 1340 72778 24019393 3 60 58 513.45 520.05 30080.4 15600876.165
vector 2362  Scenario2_SlowSpeed.node[73].veinsmobility  posy  ETV
2362	1201986 1770 72778 24019393 3 60 58 216.09150590089 509.148 22757.81425824 9541802.6667
vector 2368  Scenario2_SlowSpeed.node[74].veinsmobility  posx  ETV
2368	1212433 1340 72778 24019393 3 60 58 513.45 520.05 30083.7 15604254.045
vector 2369  Scenario2_SlowSpeed.node[74].veinsmobility  posy  ETV
2369	1210578 1855 72778 24019393 3 60 58 27.396192443111 452.31622036908 13791.581473925 4278023.6929692
vector 2375  Scenario2_SlowSpeed.node[75].veinsmobility  posx  ETV
2375	1221189 1358 72778 24019393 3 60 58 513.45 523.35 30289.334914306 15818287.713396
vector 2376  Scenario2_SlowSpeed.node[75].veinsmobility  posy  ETV
2376	1219331 1858 72778 24019393 3 60 58 427.21446149065 861.2866563622 36880.249820145 24457431.57094
vector 2382  Scenario2_SlowSpeed.node[76].veinsmobility  posx  ETV
2382	1237640 1358 72778 24019393 3 60 58 516.75 523.35 30229.8851839 15756236.076507
vector 2383  Scenario2_SlowSpeed.node[76].veinsmobility  posy  ETV
2383	1235785 1855 72778 24019393 3 60 58 294.53677672899 726.2909026964 29068.150593628 15570157.649199
vector 2389  Scenario2_SlowSpeed.node[77].veinsmobility  posx  ETV
2389	1245987 1769 72778 24019393 3 60 58 147.63361073841 513.45 21164.888108923 8567184.1635331
vector 2390  Scenario2_SlowSpeed.node[77].veinsmobility  posy  ETV
2390	1244539 1448 72778 24019393 3 60 58 459.46415430006 523.35 29884.830802583 15418465.719826
vector 2396  Scenario2_SlowSpeed.node[78].veinsmobility  posx  ETV
2396	1255148 1367 72778 24019393 3 60 58 513.45 520.05 30131.604119756 15653808.274513
vector 2397  Scenario2_SlowSpeed.node[78].veinsmobility  posy  ETV
2397	1253295 1853 72778 24019393 3 60 58 500.43849467808 914.19282638196 40061.253022439 28634731.706399
vector 2403  Scenario2_SlowSpeed.node[79].veinsmobility  posx  ETV
2403	1263590 1506 72778 24019393 3 60 58 373.1186399391 513.45 28467.486878348 14068826.314622
vector 2404  Scenario2_SlowSpeed.node[79].veinsmobility  posy  ETV
2404	1261897 1693 72778 24019393 3 60 58 385.29625539637 523.35 27610.086828662 13254302.465916
vector 1853  Scenario2_SlowSpeed.node[0].veinsmobility  acceleration  ETV
1853	97245 1998 72778 24019393 3 60 58 -0.22473332790709 2.0378424129426 3.8594997770664 7.9775377877273
vector 1854  Scenario2_SlowSpeed.node[0].veinsmobility  co2emission  ETV
1854	95407 1838 72778 24019393 3 60 58 0.973 5.1540144616109 95.192546388853 178.33711682129
vector 1860  Scenario2_SlowSpeed.node[1].veinsmobility  acceleration  ETV
1860	106300 1995 72778 24019393 3 60 58 -0.11038421904203 2.1905452468945 4.0896481627483 8.8338986768273
vector 1861  Scenario2_SlowSpeed.node[1].veinsmobility  co2emission  ETV
1861	104444 1856 72778 24019393 3 60 58 1.3256248286193 5.2999031698691 95.948474722952 181.94092634577
vector 1867  Scenario2_SlowSpeed.node[2].veinsmobility  acceleration  ETV
1867	115317 1985 72778 24019393 3 60 58 -1.1863482597944 1.9583487316654 4.0501263179958 10.899155549288
vector 1868  Scenario2_SlowSpeed.node[2].veinsmobility  co2emission  ETV
1868	113483 1834 72778 24019393 3 60 58 0.973 5.1795054926604 97.560120482686 189.25247885778
vector 1874  Scenario2_SlowSpeed.node[3].veinsmobility  acceleration  ETV
1874	196971 1992 72778 24019393 3 60 58 -1.122894828272 1.8258900123578 -3.326096919669 13.185277063478
vector 1875  Scenario2_SlowSpeed.node[3].veinsmobility  co2emission  ETV
1875	195208 1763 72778 24019393 3 60 58 0.973 4.5613906246985 90.619815672181 160.51563156453
vector 1881  Scenario2_SlowSpeed.node[4].veinsmobility  acceleration  ETV
1881	278465 1870 72778 24019393 3 60 58 -1.8978782166217 0.65759349781089 5.1116801858824 19.642439038067
vector 1882  Scenario2_SlowSpeed.node[4].veinsmobility  co2emission  ETV
1882	276751 1714 72778 24019393 3 60 58 0.973 2.758518405357 86.618680082818 142.16885105909
vector 1888  Scenario2_SlowSpeed.node[5].veinsmobility  acceleration  ETV
1888	356051 1795 72778 24019393 3 60 58 -2.7923739357915 2.1527070218464 -3.6557914111853 23.910894543349
vector 1889  Scenario2_SlowSpeed.node[5].veinsmobility  co2emission  ETV
1889	354383 1668 72778 24019393 3 60 58 0.973 4.8296904537292 85.259917822718 150.93342724393
vector 1895  Scenario2_SlowSpeed.node[6].veinsmobility  acceleration  ETV
1895	433696 1986 72778 24019393 3 60 58 -1.9237092602694 1.9535278939782 -2.9573492128436 14.232768172856
vector 1896  Scenario2_SlowSpeed.node[6].veinsmobility  co2emission  ETV
1896	432047 1649 72778 24019393 3 60 58 0.973 4.267958320945 77.089630480138 119.6135751577
vector 1902  Scenario2_SlowSpeed.node[7].veinsmobility  acceleration  ETV
1902	511098 1999 72778 24019393 3 60 58 -0.12053343149368 1.556158629342 4.3282641223987 6.3558285533798
vector 1903  Scenario2_SlowSpeed.node[7].veinsmobility  co2emission  ETV
1903	509240 1858 72778 24019393 3 60 58 1.3061301818217 4.3832819865862 95.852022752422 173.01252083596
vector 1909  Scenario2_SlowSpeed.node[8].veinsmobility  acceleration  ETV
1909	580553 1995 72778 24019393 3 60 58 -0.82274225008945 2.2072257999424 -1.9419018110623 12.940838920164
vector 1910  Scenario2_SlowSpeed.node[8].veinsmobility  co2emission  ETV
1910	578779 1774 72778 24019393 3 60 58 0.973 5.1390737866891 91.116998042675 168.73681613228
vector 1916  Scenario2_SlowSpeed.node[9].veinsmobility  acceleration  ETV
1916	652473 1999 72778 24019393 3 60 58 -0.10457275018319 2.122358843179 4.0534666424214 8.4519224637957
vector 1917  Scenario2_SlowSpeed.node[9].veinsmobility  co2emission  ETV
1917	650615 1858 72778 24019393 3 60 58 1.3364362222274 5.2863945353693 95.972213143982 181.61421310373
vector 1923  Scenario2_SlowSpeed.node[10].veinsmobility  acceleration  ETV
1923	719401 1995 72778 24019393 3 60 58 -0.72971797423676 1.8794109122083 4.264999102757 8.6774393597024
vector 1924  Scenario2_SlowSpeed.node[10].veinsmobility  co2emission  ETV
1924	717555 1846 72778 24019393 3 60 58 0.973 4.8595533457499 96.691722761808 181.19013195415
vector 1930  Scenario2_SlowSpeed.node[11].veinsmobility  acceleration  ETV
1930	783018 1796 72778 24019393 3 60 58 -2.6237263273566 2.0887350653158 5.1196054407689 39.384308676827
vector 1931  Scenario2_SlowSpeed.node[11].veinsmobility  co2emission  ETV
1931	781336 1682 72778 24019393 3 60 58 0.973 4.8988598111896 96.558460676442 207.57355002323
vector 1937  Scenario2_SlowSpeed.node[12].veinsmobility  acceleration  ETV
1937	842187 1995 72778 24019393 3 60 58 -0.46641761952669 1.7066776989607 4.0632770512384 5.5503921708863
vector 1938  Scenario2_SlowSpeed.node[12].veinsmobility  co2emission  ETV
1938	840353 1834 72778 24019393 3 60 58 0.973 3.6959291938214 95.375354877543 168.22629489023
vector 1944  Scenario2_SlowSpeed.node[13].veinsmobility  acceleration  ETV
1944	851230 2000 72778 24019393 3 60 58 -0.10254382550251 2.0651534931688 4.2051071626225 7.9538288193346
vector 1945  Scenario2_SlowSpeed.node[13].veinsmobility  co2emission  ETV
1945	849376 1854 72778 24019393 3 60 58 1.3408599333251 4.9276576698313 95.968863519664 178.09407188446
vector 1951  Scenario2_SlowSpeed.node[14].veinsmobility  acceleration  ETV
1951	860127 1908 72778 24019393 3 60 58 -1.3463071776826 2.2244494700362 -3.7894113107566 16.934353816303
vector 1952  Scenario2_SlowSpeed.node[14].veinsmobility  co2emission  ETV
1952	858418 1709 72778 24019393 3 60 58 0.973 5.3393625464474 87.37545663481 161.00088755652
vector 1958  Scenario2_SlowSpeed.node[15].veinsmobility  acceleration  ETV
1958	868699 1928 72778 24019393 3 60 58 -4.5 1.9906797306892 -3.4990516670957 44.764632593589
vector 1959  Scenario2_SlowSpeed.node[15].veinsmobility  co2emission  ETV
1959	867087 1612 72778 24019393 3 60 58 0.973 4.9759419774749 75.368954181861 127.59613378434
vector 1965  Scenario2_SlowSpeed.node[16].veinsmobility  acceleration  ETV
1965	877449 1842 72778 24019393 3 60 58 -2.4452587383966 2.0291031939513 -3.4675699174894 34.991017197874
vector 1966  Scenario2_SlowSpeed.node[16].veinsmobility  co2emission  ETV
1966	875801 1648 72778 24019393 3 60 58 0.973 5.1051557239831 92.209654394933 182.59688785155
vector 1972  Scenario2_SlowSpeed.node[17].veinsmobility  acceleration  ETV
1972	885937 1948 72778 24019393 3 60 58 -1.9518236688181 1.9672634236701 -2.6942799909062 44.961205603481
vector 1973  Scenario2_SlowSpeed.node[17].veinsmobility  co2emission  ETV
1973	884300 1637 72778 24019393 3 60 58 0.973 5.0299575285207 96.683065522266 214.73133470816
vector 1979  Scenario2_SlowSpeed.node[18].veinsmobility  acceleration  ETV
1979	894926 1999 72778 24019393 3 60 58 -0.11203438877128 1.9054944779584 5.3480598707267 9.6304786488438
vector 1980  Scenario2_SlowSpeed.node[18].veinsmobility  co2emission  ETV
1980	893067 1859 72778 24019393 3 60 58 1.3223008063967 4.5542257214239 96.961519753214 181.73169156927
vector 1986  Scenario2_SlowSpeed.node[19].veinsmobility  acceleration  ETV
1986	903963 2008 72778 24019393 3 60 58 -0.09099373116158 2.0794576383522 5.1333034304534 9.6056109000319
vector 1987  Scenario2_SlowSpeed.node[19].veinsmobility  co2emission  ETV
1987	902107 1856 72778 24019393 3 60 58 1.3631761388801 4.760697120825 96.734147109978 180.38137365064
vector 1993  Scenario2_SlowSpeed.node[20].veinsmobility  acceleration  ETV
1993	912919 1982 72778 24019393 3 60 58 -1.9800831427599 2.0540950911143 -1.8495387485314 18.937235285955
vector 1994  Scenario2_SlowSpeed.node[20].veinsmobility  co2emission  ETV
1994	911160 1759 72778 24019393 3 60 58 0.973 4.8252002146717 94.023595282131 176.75801635306
vector 2000  Scenario2_SlowSpeed.node[21].veinsmobility  acceleration  ETV
2000	921677 1775 72778 24019393 3 60 58 -4.5 1.9197271838508 -1.6601570469617 49.839881525631
vector 2001  Scenario2_SlowSpeed.node[21].veinsmobility  co2emission  ETV
2001	920068 1609 72778 24019393 3 60 58 0.973 5.1736672761766 74.355483710608 125.51389083164
vector 2007  Scenario2_SlowSpeed.node[22].veinsmobility  acceleration  ETV
2007	930126 1958 72778 24019393 3 60 58 -2.0147678701725 1.9737747708103 2.7848533965209 34.792808411011
vector 2008  Scenario2_SlowSpeed.node[22].veinsmobility  co2emission  ETV
2008	928494 1632 72778 24019393 3 60 58 0.973 4.6410290859334 96.088198586303 210.06231650014
vector 2014  Scenario2_SlowSpeed.node[23].veinsmobility  acceleration  ETV
2014	939102 1977 72778 24019393 3 60 58 -1.4525530893272 2.0091581211518 3.9927135260893 11.017288275126
vector 2015  Scenario2_SlowSpeed.node[23].veinsmobility  co2emission  ETV
2015	937263 1839 72778 24019393 3 60 58 0.973 4.2860949452459 97.23898138083 181.04637552964
vector 2021  Scenario2_SlowSpeed.node[24].veinsmobility  acceleration  ETV
2021	948085 1985 72778 24019393 3 60 58 -1.4529478026463 2.128872625106 5.1330947646817 12.270266392142
vector 2022  Scenario2_SlowSpeed.node[24].veinsmobility  co2emission  ETV
2022	946252 1833 72778 24019393 3 60 58 0.973 3.9075862964506 97.105014462846 178.0830432874
vector 2028  Scenario2_SlowSpeed.node[25].veinsmobility  acceleration  ETV
2028	956900 1738 72778 24019393 3 60 58 -2.1260021539187 0.67742338858545 6.6827940113163 25.115806903624
vector 2029  Scenario2_SlowSpeed.node[25].veinsmobility  co2emission  ETV
2029	955246 1654 72778 24019393 3 60 58 0.973 2.6696407897889 86.835989547916 146.88191892642
vector 2035  Scenario2_SlowSpeed.node[26].veinsmobility  acceleration  ETV
2035	965077 1828 72778 24019393 3 60 58 -1.6527177298027 1.9900638160552 -1.8085479063414 21.769412691787
vector 2036  Scenario2_SlowSpeed.node[26].veinsmobility  co2emission  ETV
2036	963518 1559 72778 24019393 3 60 58 0.973 4.727203901159 74.925658480201 125.49675473577
vector 2042  Scenario2_SlowSpeed.node[27].veinsmobility  acceleration  ETV
2042	973703 1967 72778 24019393 3 60 58 -3.7595346708985 2.0524605136644 -1.4189161360338 32.835053613575
vector 2043  Scenario2_SlowSpeed.node[27].veinsmobility  co2emission  ETV
2043	971936 1767 72778 24019393 3 60 58 0.973 4.8823539520864 81.511094532302 142.78059297675
vector 2049  Scenario2_SlowSpeed.node[28].veinsmobility  acceleration  ETV
2049	982655 1983 72778 24019393 3 60 58 -3.2480044146591 1.8810056384676 5.2143532650693 29.411077970533
vector 2050  Scenario2_SlowSpeed.node[28].veinsmobility  co2emission  ETV
2050	980822 1833 72778 24019393 3 60 58 0.973 5.1095275971661 102.33163836977 219.11251287933
vector 2056  Scenario2_SlowSpeed.node[29].veinsmobility  acceleration  ETV
2056	991554 1889 72778 24019393 3 60 58 -1.4296069619981 0.65836759774014 4.5451277832168 15.891494762324
vector 2057  Scenario2_SlowSpeed.node[29].veinsmobility  co2emission  ETV
2057	989823 1731 72778 24019393 3 60 58 0.973 2.6474792984994 85.292530461777 137.01305416941
vector 2063  Scenario2_SlowSpeed.node[30].veinsmobility  acceleration  ETV
2063	1000191 1826 72778 24019393 3 60 58 -2.6202316028359 1.9428859233833 -2.6830987371855 23.712322388127
vector 2064  Scenario2_SlowSpeed.node[30].veinsmobility  co2emission  ETV
2064	998493 1698 72778 24019393 3 60 58 0.973 4.4733825844955 87.407942877587 157.55196537069
vector 2070  Scenario2_SlowSpeed.node[31].veinsmobility  acceleration  ETV
2070	1008797 1981 72778 24019393 3 60 58 -1.282434493594 1.8596407763078 5.2536079644783 9.8461557946045
vector 2071  Scenario2_SlowSpeed.node[31].veinsmobility  co2emission  ETV
2071	1006959 1838 72778 24019393 3 60 58 0.973 4.0725706592733 97.548849538607 178.47128101104
vector 2077  Scenario2_SlowSpeed.node[32].veinsmobility  acceleration  ETV
2077	1017594 1920 72778 24019393 3 60 58 -1.7731438125962 2.0758939225124 -2.6825295369422 17.90920218266
vector 2078  Scenario2_SlowSpeed.node[32].veinsmobility  co2emission  ETV
2078	1015965 1629 72778 24019393 3 60 58 0.973 3.3569884733187 68.97389754896 94.254090480978
vector 2084  Scenario2_SlowSpeed.node[33].veinsmobility  acceleration  ETV
2084	1026509 1987 72778 24019393 3 60 58 -0.45615151682197 1.9309731653566 7.2845816056606 12.236944435057
vector 2085  Scenario2_SlowSpeed.node[33].veinsmobility  co2emission  ETV
2085	1024665 1844 72778 24019393 3 60 58 0.973 4.0347072595938 97.374916046768 177.86327020718
vector 2091  Scenario2_SlowSpeed.node[34].veinsmobility  acceleration  ETV
2091	1035513 1981 72778 24019393 3 60 58 -1.7546872166028 1.989081373997 4.1989104815277 13.902831337549
vector 2092  Scenario2_SlowSpeed.node[34].veinsmobility  co2emission  ETV
2092	1033695 1818 72778 24019393 3 60 58 0.973 5.2198011572892 98.505113919818 191.79127180973
vector 2098  Scenario2_SlowSpeed.node[35].veinsmobility  acceleration  ETV
2098	1052027 1494 72778 24019393 3 60 58 -1.761449163155 0.72982673397235 6.830726609154 11.974675966113
vector 2099  Scenario2_SlowSpeed.node[35].veinsmobility  co2emission  ETV
2099	1050507 1520 72778 24019393 3 60 58 0.973 2.7632877932695 76.288275259069 113.67017665404
vector 2105  Scenario2_SlowSpeed.node[36].veinsmobility  acceleration  ETV
2105	1068324 1650 72778 24019393 3 60 58 -2.122957472347 2.2234353588018 4.0289419576799 35.08099104856
vector 2106  Scenario2_SlowSpeed.node[36].veinsmobility  co2emission  ETV
2106	1066744 1580 72778 24019393 3 60 58 0.973 5.1088816218879 88.740085993928 188.54569898531
vector 2112  Scenario2_SlowSpeed.node[37].veinsmobility  acceleration  ETV
2112	1084978 1985 72778 24019393 3 60 58 -1.4033305056189 2.1654606813029 4.1703808196779 12.578101482313
vector 2113  Scenario2_SlowSpeed.node[37].veinsmobility  co2emission  ETV
2113	1083154 1824 72778 24019393 3 60 58 0.973 5.1429338819437 96.495432136364 185.1677654349
vector 2119  Scenario2_SlowSpeed.node[38].veinsmobility  acceleration  ETV
2119	1128963 2005 72778 24019393 3 60 58 -0.098340848339721 1.5759501149575 4.0666236561066 5.9317707787107
vector 2120  Scenario2_SlowSpeed.node[38].veinsmobility  co2emission  ETV
2120	1127112 1851 72778 24019393 3 60 58 1.3483485806117 4.2744087291165 95.486677327521 171.71600874883
vector 2126  Scenario2_SlowSpeed.node[39].veinsmobility  acceleration  ETV
2126	1172771 1709 72778 24019393 3 60 58 -1.1883704995914 0.68313230515458 6.7637855258244 15.939662285609
vector 2127  Scenario2_SlowSpeed.node[39].veinsmobility  co2emission  ETV
2127	1171172 1599 72778 24019393 3 60 58 0.973 2.5895187818782 83.697750644493 137.63600179954
vector 2133  Scenario2_SlowSpeed.node[40].veinsmobility  acceleration  ETV
2133	1223987 1497 72778 24019393 3 60 58 -1.8540805794339 1.987623366646 -3.9414583031813 22.942518006564
vector 2134  Scenario2_SlowSpeed.node[40].veinsmobility  co2emission  ETV
2134	1222547 1440 72778 24019393 3 60 58 0.973 5.2713771709401 70.37111183342 115.64684831193
vector 2140  Scenario2_SlowSpeed.node[41].veinsmobility  acceleration  ETV
2140	1299925 1898 72778 24019393 3 60 58 -3.7922634956117 2.0143767090887 5.4766034309146 74.193062600835
vector 2141  Scenario2_SlowSpeed.node[41].veinsmobility  co2emission  ETV
2141	1298197 1728 72778 24019393 3 60 58 0.973 5.2369189960507 104.80344365279 241.52146745045
vector 2147  Scenario2_SlowSpeed.node[42].veinsmobility  acceleration  ETV
2147	1317008 2004 72778 24019393 3 60 58 -0.11874683173373 1.9786985100852 3.9768199081581 7.4748013529811
vector 2148  Scenario2_SlowSpeed.node[42].veinsmobility  co2emission  ETV
2148	1315157 1851 72778 24019393 3 60 58 1.309796163797 5.2325275355 95.733862318908 177.56924585442
vector 2154  Scenario2_SlowSpeed.node[43].veinsmobility  acceleration  ETV
2154	1404873 1968 72778 24019393 3 60 58 -1.6210476983931 2.0070330325328 4.0749528955477 18.461488322874
vector 2155  Scenario2_SlowSpeed.node[43].veinsmobility  co2emission  ETV
2155	1403097 1776 72778 24019393 3 60 58 0.973 4.2234028169926 94.731173314718 173.13062434791
vector 2161  Scenario2_SlowSpeed.node[44].veinsmobility  acceleration  ETV
2161	1468200 1927 72778 24019393 3 60 58 -2.408576123248 1.9034681440843 5.2221568831198 36.760232394205
vector 2162  Scenario2_SlowSpeed.node[44].veinsmobility  co2emission  ETV
2162	1466474 1726 72778 24019393 3 60 58 0.973 4.6318476489985 97.542770885277 200.42304617941
vector 2168  Scenario2_SlowSpeed.node[45].veinsmobility  acceleration  ETV
2168	1492127 1647 72778 24019393 3 60 58 -1.8195726891453 0.66231845444069 6.7587675000837 20.050475809019
vector 2169  Scenario2_SlowSpeed.node[45].veinsmobility  co2emission  ETV
2169	1490529 1598 72778 24019393 3 60 58 0.973 2.5984603132667 80.865778932949 127.16039665736
vector 2175  Scenario2_SlowSpeed.node[46].veinsmobility  acceleration  ETV
2175	1529518 1943 72778 24019393 3 60 58 -2.2813488385423 0.65904702475295 4.3068127958841 20.542209884079
vector 2176  Scenario2_SlowSpeed.node[46].veinsmobility  co2emission  ETV
2176	1527754 1764 72778 24019393 3 60 58 0.973 2.7009943922082 87.286222304902 141.65977677532
vector 2181  Scenario2_SlowSpeed.node[47].veinsmobility  speed  ETV
2181	133635 1870 72778 24019393 3 60 58 0.43421228121151 7.9955997145083 270.95500557867 1798.4329388287
vector 2188  Scenario2_SlowSpeed.node[48].veinsmobility  speed  ETV
2188	221458 1856 72778 24019393 3 60 58 0.55958808761422 7.9944861674053 341.29794754485 2377.5469037316
vector 2195  Scenario2_SlowSpeed.node[49].veinsmobility  speed  ETV
2195	257780 1855 72778 24019393 3 60 58 4.128183642186 7.9991118872352 454.4893727823 3578.3446251418
vector 2202  Scenario2_SlowSpeed.node[50].veinsmobility  speed  ETV
2202	322768 1541 72778 24019393 3 60 58 0 7.9887561947617 154.22500331672 908.62852263174
vector 2209  Scenario2_SlowSpeed.node[51].veinsmobility  speed  ETV
2209	393974 1860 72778 24019393 3 60 58 4.0032678266399 7.9965043938183 452.65830066944 3552.5910411613
vector 2216  Scenario2_SlowSpeed.node[52].veinsmobility  speed  ETV
2216	476410 1616 72778 24019393 3 60 58 0 7.9239647309814 166.70752507509 964.17497231419
vector 2223  Scenario2_SlowSpeed.node[53].veinsmobility  speed  ETV
2223	497820 1871 72778 24019393 3 60 58 0.42930515267712 7.999937741356 273.4579686148 1869.8889349339
vector 2230  Scenario2_SlowSpeed.node[54].veinsmobility  speed  ETV
2230	620324 1861 72778 24019393 3 60 58 0.50055192669016 7.9963758807071 339.45658599852 2440.614510716
vector 2237  Scenario2_SlowSpeed.node[55].veinsmobility  speed  ETV
2237	640150 1728 72778 24019393 3 60 58 0 7.9994242065307 198.91586643573 1228.5641623783
vector 2244  Scenario2_SlowSpeed.node[56].veinsmobility  speed  ETV
2244	691191 1854 72778 24019393 3 60 58 3.288878560522 7.9992284427932 437.5079834254 3356.4836154416
vector 2251  Scenario2_SlowSpeed.node[57].veinsmobility  speed  ETV
2251	740810 1853 72778 24019393 3 60 58 3.3464291872341 7.9971116283815 437.3535172849 3359.7285032677
vector 2258  Scenario2_SlowSpeed.node[58].veinsmobility  speed  ETV
2258	807190 1386 72778 24019393 3 60 58 0 7.9953941268264 146.97305314373 1088.1801831655
vector 2265  Scenario2_SlowSpeed.node[59].veinsmobility  speed  ETV
2265	1045684 1578 72778 24019393 3 60 58 0 7.9015984081454 93.386962907302 398.79840968574
vector 2272  Scenario2_SlowSpeed.node[60].veinsmobility  speed  ETV
2272	1061695 1822 72778 24019393 3 60 58 0 7.9930569713004 372.78183390899 2807.5621956339
vector 2279  Scenario2_SlowSpeed.node[61].veinsmobility  speed  ETV
2279	1078122 1789 72778 24019393 3 60 58 0 7.3752109016131 82.600390211692 347.22130106822
vector 2286  Scenario2_SlowSpeed.node[62].veinsmobility  speed  ETV
2286	1095784 1831 72778 24019393 3 60 58 0 7.9928612200473 384.294946333 2906.7056878003
vector 2293  Scenario2_SlowSpeed.node[63].veinsmobility  speed  ETV
2293	1104412 1892 72778 24019393 3 60 58 4.5370781051279e-14 7.9880940223648 165.73477534189 946.98313087182
vector 2300  Scenario2_SlowSpeed.node[64].veinsmobility  speed  ETV
2300	1113150 1892 72778 24019393 3 60 58 4.5631158399626e-14 7.9878495393856 184.91908328365 1160.8694786847
vector 2307  Scenario2_SlowSpeed.node[65].veinsmobility  speed  ETV
2307	1121987 1851 72778 24019393 3 60 58 0.99661806728129 7.9959100377071 383.35085573324 2793.1008432505
vector 2314  Scenario2_SlowSpeed.node[66].veinsmobility  speed  ETV
2314	1139857 1864 72778 24019393 3 60 58 2.2422993606342e-05 7.9996032395819 400.03965708922 3046.1922950476
vector 2321  Scenario2_SlowSpeed.node[67].veinsmobility  speed  ETV
2321	1148714 1853 72778 24019393 3 60 58 2.7177946115121 7.9915939619835 432.38266158603 3308.1977828248
vector 2328  Scenario2_SlowSpeed.node[68].veinsmobility  speed  ETV
2328	1157385 1828 72778 24019393 3 60 58 0 7.6014129096616 162.56511217072 748.98827016149
vector 2335  Scenario2_SlowSpeed.node[69].veinsmobility  speed  ETV
2335	1166087 1814 72778 24019393 3 60 58 0 7.9507456207556 318.49471545373 2215.9900588158
vector 2342  Scenario2_SlowSpeed.node[70].veinsmobility  speed  ETV
2342	1183102 1856 72778 24019393 3 60 58 2.2640141393428 7.9992422943306 444.26913347655 3451.2326765025
vector 2349  Scenario2_SlowSpeed.node[71].veinsmobility  speed  ETV
2349	1547384 1699 72778 24019393 3 60 58 0 7.9981488522608 166.6473702329 907.09238176071
vector 2410  Scenario2_SlowSpeed.node[80].veinsmobility  posx  ETV
2410	1272015 1320 135403 24019393 4 60 57 513.45 516.75 29438.25 15203743.7625
vector 2411  Scenario2_SlowSpeed.node[80].veinsmobility  posy  ETV
2411	1270187 1828 135403 24019393 4 60 57 381.5216856369 437.85934314291 24123.986377687 10223857.644755
vector 2417  Scenario2_SlowSpeed.node[81].veinsmobility  posx  ETV
2417	1280636 1365 135403 24019393 4 60 57 516.75 520.05 29623.770031673 15395977.647567
vector 2418  Scenario2_SlowSpeed.node[81].veinsmobility  posy  ETV
2418	1278807 1829 135403 24019393 4 60 57 513.80113344004 937.61158246665 40820.836662562 30188108.19782
vector 2424  Scenario2_SlowSpeed.node[82].veinsmobility  posx  ETV
2424	1288468 1320 135403 24019393 4 60 57 513.45 516.75 29438.25 15203743.7625
vector 2425  Scenario2_SlowSpeed.node[82].veinsmobility  posy  ETV
2425	1286723 1745 135403 24019393 4 60 57 411.81533127067 503.147 26932.648788958 12761330.10704
vector 2431  Scenario2_SlowSpeed.node[83].veinsmobility  posx  ETV
2431	1296877 1320 135403 24019393 4 60 57 513.45 516.75 29418.45 15183345.8025
vector 2432  Scenario2_SlowSpeed.node[83].veinsmobility  posy  ETV
2432	1295049 1828 135403 24019393 4 60 57 144.73530532261 290.50395364754 14152.45272015 3616187.4659967
vector 2438  Scenario2_SlowSpeed.node[84].veinsmobility  posx  ETV
2438	1313837 1320 135403 24019393 4 60 57 513.45 516.75 29441.55 15207143.4225
vector 2439  Scenario2_SlowSpeed.node[84].veinsmobility  posy  ETV
2439	1312010 1827 135403 24019393 4 60 57 369.97836124469 433.49054817672 23837.631122452 9986864.6966032
vector 2445  Scenario2_SlowSpeed.node[85].veinsmobility  posx  ETV
2445	1330434 1320 135403 24019393 4 60 57 513.45 516.75 29438.25 15203743.7625
vector 2446  Scenario2_SlowSpeed.node[85].veinsmobility  posy  ETV
2446	1328603 1831 135403 24019393 4 60 57 328.01461626386 394.88642012795 21585.604415831 8195798.0588008
vector 2182  Scenario2_SlowSpeed.node[47].veinsmobility  acceleration  ETV
2182	131698 1937 135403 24019393 4 60 57 -2.4049472333817 0.6373020789586 2.6132811134718 21.790395919158
vector 2183  Scenario2_SlowSpeed.node[47].veinsmobility  co2emission  ETV
2183	129953 1745 135403 24019393 4 60 57 0.973 2.6274940820367 88.936329389505 150.64504434347
vector 2189  Scenario2_SlowSpeed.node[48].veinsmobility  acceleration  ETV
2189	219547 1911 135403 24019393 4 60 57 -2.5776205373693 1.94221532322 3.9192299700844 45.156746337694
vector 2190  Scenario2_SlowSpeed.node[48].veinsmobility  co2emission  ETV
2190	217819 1728 135403 24019393 4 60 57 0.973 4.3589039534134 100.11539423118 206.25634325629
vector 2196  Scenario2_SlowSpeed.node[49].veinsmobility  acceleration  ETV
2196	255803 1977 135403 24019393 4 60 57 -0.097632855291013 2.0866294606519 3.7981752134462 7.6128309398589
vector 2197  Scenario2_SlowSpeed.node[49].veinsmobility  co2emission  ETV
2197	253980 1823 135403 24019393 4 60 57 1.3500122758176 4.9329997836595 94.033149115318 175.6178861575
vector 2203  Scenario2_SlowSpeed.node[50].veinsmobility  acceleration  ETV
2203	321197 1571 135403 24019393 4 60 57 -2.2708360553463 0.65060185198672 6.7366628404999 20.690119506809
vector 2204  Scenario2_SlowSpeed.node[50].veinsmobility  co2emission  ETV
2204	319645 1552 135403 24019393 4 60 57 0.973 2.6035410031891 81.682451808125 133.92694969301
vector 2210  Scenario2_SlowSpeed.node[51].veinsmobility  acceleration  ETV
2210	392008 1966 135403 24019393 4 60 57 -0.60753999474745 2.0446669776877 3.9932365671784 9.62880333855
vector 2211  Scenario2_SlowSpeed.node[51].veinsmobility  co2emission  ETV
2211	390199 1809 135403 24019393 4 60 57 0.973 4.947127072455 95.321367348007 184.62340790659
vector 2217  Scenario2_SlowSpeed.node[52].veinsmobility  acceleration  ETV
2217	474764 1646 135403 24019393 4 60 57 -1.5194471242331 0.66098499149182 6.6953552583946 17.208906491112
vector 2218  Scenario2_SlowSpeed.node[52].veinsmobility  co2emission  ETV
2218	473193 1571 135403 24019393 4 60 57 0.973 2.716139330036 82.374276018135 136.51199754981
vector 2224  Scenario2_SlowSpeed.node[53].veinsmobility  acceleration  ETV
2224	495867 1953 135403 24019393 4 60 57 -2.2553691996719 0.68148814985529 3.1964765804012 19.632774600461
vector 2225  Scenario2_SlowSpeed.node[53].veinsmobility  co2emission  ETV
2225	494090 1777 135403 24019393 4 60 57 0.973 2.7929282881595 86.832682084299 140.90432119178
vector 2231  Scenario2_SlowSpeed.node[54].veinsmobility  acceleration  ETV
2231	618374 1950 135403 24019393 4 60 57 -2.5700016554303 0.67055059749633 2.1901410477693 18.774038027679
vector 2232  Scenario2_SlowSpeed.node[54].veinsmobility  co2emission  ETV
2232	616614 1760 135403 24019393 4 60 57 0.973 2.7375631191324 88.766771825957 145.58500001597
vector 2238  Scenario2_SlowSpeed.node[55].veinsmobility  acceleration  ETV
2238	638366 1784 135403 24019393 4 60 57 -1.7726716904226 0.67375901133753 6.1130944313921 18.796398236547
vector 2239  Scenario2_SlowSpeed.node[55].veinsmobility  co2emission  ETV
2239	636706 1660 135403 24019393 4 60 57 0.973 2.6846970589741 85.004148028613 141.25210439277
vector 2245  Scenario2_SlowSpeed.node[56].veinsmobility  acceleration  ETV
2245	689232 1959 135403 24019393 4 60 57 -1.2648739903259 1.7743496619398 4.6725851428328 12.048680568955
vector 2246  Scenario2_SlowSpeed.node[56].veinsmobility  co2emission  ETV
2246	687434 1798 135403 24019393 4 60 57 0.973 4.3514134699614 96.182975299747 184.57618308902
vector 2252  Scenario2_SlowSpeed.node[57].veinsmobility  acceleration  ETV
2252	738855 1955 135403 24019393 4 60 57 -2.3326434555579 1.8955579431914 4.3124206036676 26.068830839017
vector 2253  Scenario2_SlowSpeed.node[57].veinsmobility  co2emission  ETV
2253	737057 1798 135403 24019393 4 60 57 0.973 4.7961625333037 101.0358064706 211.05355500132
vector 2259  Scenario2_SlowSpeed.node[58].veinsmobility  acceleration  ETV
2259	805772 1418 135403 24019393 4 60 57 -1.2838926623046 2.3531378758276 4.6063558478187 19.143539898844
vector 2260  Scenario2_SlowSpeed.node[58].veinsmobility  co2emission  ETV
2260	804321 1451 135403 24019393 4 60 57 0.973 4.7375412572236 75.053569982509 130.91239697146
vector 2266  Scenario2_SlowSpeed.node[59].veinsmobility  acceleration  ETV
2266	1044063 1621 135403 24019393 4 60 57 -1.4639308557232 2.1681716927071 -3.1616020510857 16.515941150129
vector 2267  Scenario2_SlowSpeed.node[59].veinsmobility  co2emission  ETV
2267	1042682 1381 135403 24019393 4 60 57 0.973 5.5460821174953 66.559242735465 107.25916654666
vector 2273  Scenario2_SlowSpeed.node[60].veinsmobility  acceleration  ETV
2273	1059769 1926 135403 24019393 4 60 57 -0.90208304469621 2.174103573435 -3.6130632591076 13.828179985021
vector 2274  Scenario2_SlowSpeed.node[60].veinsmobility  co2emission  ETV
2274	1058089 1680 135403 24019393 4 60 57 0.973 5.5039125297345 85.888273655755 155.63871173211
vector 2280  Scenario2_SlowSpeed.node[61].veinsmobility  acceleration  ETV
2280	1076279 1843 135403 24019393 4 60 57 -1.4131763551182 2.0967680604826 -1.8283318313708 15.757732131585
vector 2281  Scenario2_SlowSpeed.node[61].veinsmobility  co2emission  ETV
2281	1074699 1580 135403 24019393 4 60 57 0.973 5.1809234641301 68.484097473591 107.76113519962
vector 2287  Scenario2_SlowSpeed.node[62].veinsmobility  acceleration  ETV
2287	1093836 1948 135403 24019393 4 60 57 -0.99313184978298 1.9143103672052 -3.051058396439 14.464246516244
vector 2288  Scenario2_SlowSpeed.node[62].veinsmobility  co2emission  ETV
2288	1092138 1698 135403 24019393 4 60 57 0.973 4.5610361113627 87.510311528285 156.93124375031
vector 2294  Scenario2_SlowSpeed.node[63].veinsmobility  acceleration  ETV
2294	1102455 1957 135403 24019393 4 60 57 -1.7971139183174 1.7584488421772 -2.1913271913529 14.239344077202
vector 2295  Scenario2_SlowSpeed.node[63].veinsmobility  co2emission  ETV
2295	1100847 1608 135403 24019393 4 60 57 0.973 3.416880062375 75.388787928796 112.15883548543
vector 2301  Scenario2_SlowSpeed.node[64].veinsmobility  acceleration  ETV
2301	1111195 1955 135403 24019393 4 60 57 -3.5291591689349 2.0002199415327 -1.9882499785493 27.811807012894
vector 2302  Scenario2_SlowSpeed.node[64].veinsmobility  co2emission  ETV
2302	1109545 1650 135403 24019393 4 60 57 0.973 4.4835873316201 78.749731931989 133.5617250287
vector 2308  Scenario2_SlowSpeed.node[65].veinsmobility  acceleration  ETV
2308	1120055 1932 135403 24019393 4 60 57 -1.0580387578879 1.8416912150406 4.8221614669529 12.77747894845
vector 2309  Scenario2_SlowSpeed.node[65].veinsmobility  co2emission  ETV
2309	1118288 1767 135403 24019393 4 60 57 0.973 3.5508656663785 92.765989056643 161.85015940479
vector 2315  Scenario2_SlowSpeed.node[66].veinsmobility  acceleration  ETV
2315	1137894 1963 135403 24019393 4 60 57 -1.4041648228188 2.0972854320053 -2.9361430381892 16.648707383951
vector 2316  Scenario2_SlowSpeed.node[66].veinsmobility  co2emission  ETV
2316	1136163 1731 135403 24019393 4 60 57 0.973 4.8249479946791 89.3801518494 163.32628419245
vector 2322  Scenario2_SlowSpeed.node[67].veinsmobility  acceleration  ETV
2322	1146767 1947 135403 24019393 4 60 57 -0.49068346027867 1.3191766180106 5.2718782560458 5.4531972637543
vector 2323  Scenario2_SlowSpeed.node[67].veinsmobility  co2emission  ETV
2323	1144956 1811 135403 24019393 4 60 57 0.973 3.5028608747331 93.962136071867 162.40408419807
vector 2329  Scenario2_SlowSpeed.node[68].veinsmobility  acceleration  ETV
2329	1155467 1918 135403 24019393 4 60 57 -2.0318780183107 1.7120349743412 0.59397459420723 24.516196768996
vector 2330  Scenario2_SlowSpeed.node[68].veinsmobility  co2emission  ETV
2330	1153822 1645 135403 24019393 4 60 57 0.973 4.2516304394084 78.190861656921 127.94853186526
vector 2336  Scenario2_SlowSpeed.node[69].veinsmobility  acceleration  ETV
2336	1164166 1921 135403 24019393 4 60 57 -1.5560555747943 2.2558627320177 5.7144337488003 23.561239596176
vector 2337  Scenario2_SlowSpeed.node[69].veinsmobility  co2emission  ETV
2337	1162457 1709 135403 24019393 4 60 57 0.973 3.928198243586 89.870688040613 155.73738719131
vector 2343  Scenario2_SlowSpeed.node[70].veinsmobility  acceleration  ETV
2343	1181138 1964 135403 24019393 4 60 57 -0.4147000166709 1.9102998795371 5.6382675851512 10.40156279744
vector 2344  Scenario2_SlowSpeed.node[70].veinsmobility  co2emission  ETV
2344	1179331 1807 135403 24019393 4 60 57 0.973 4.1927282501062 95.497420217272 178.99642442899
vector 2350  Scenario2_SlowSpeed.node[71].veinsmobility  acceleration  ETV
2350	1545641 1743 135403 24019393 4 60 57 -1.5569502077763 0.68039745812304 6.4798210981876 18.4835547851
vector 2351  Scenario2_SlowSpeed.node[71].veinsmobility  co2emission  ETV
2351	1544020 1621 135403 24019393 4 60 57 0.973 2.7069417367418 83.767532074329 139.53481028521
vector 2356  Scenario2_SlowSpeed.node[72].veinsmobility  speed  ETV
2356	1191958 1829 135403 24019393 4 60 57 4.0278290543699 7.9990690332185 446.43774273458 3515.0351965479
vector 2363  Scenario2_SlowSpeed.node[73].veinsmobility  speed  ETV
2363	1200305 1681 135403 24019393 4 60 57 0 7.9930978454277 291.9804915721 2122.499978229
vector 2370  Scenario2_SlowSpeed.node[74].veinsmobility  speed  ETV
2370	1208750 1828 135403 24019393 4 60 57 3.5176836492705 7.9987260985072 428.84844915709 3288.6993088433
vector 2377  Scenario2_SlowSpeed.node[75].veinsmobility  speed  ETV
2377	1217504 1827 135403 24019393 4 60 57 3.6123795926145 7.9987191497651 444.82870346179 3495.3898232988
vector 2384  Scenario2_SlowSpeed.node[76].veinsmobility  speed  ETV
2384	1233965 1820 135403 24019393 4 60 57 3.200249777116 7.9991614796617 443.50326961648 3480.8755509087
vector 2391  Scenario2_SlowSpeed.node[77].veinsmobility  speed  ETV
2391	1242712 1827 135403 24019393 4 60 57 2.4152160086432 7.9992785045248 439.18846621263 3430.7553103464
vector 2398  Scenario2_SlowSpeed.node[78].veinsmobility  speed  ETV
2398	1251470 1825 135403 24019393 4 60 57 1.6778472529908 7.9968126764882 426.00393056118 3283.6556706232
vector 2405  Scenario2_SlowSpeed.node[79].veinsmobility  speed  ETV
2405	1260057 1840 135403 24019393 4 60 57 0.12872760164984 7.9970870370069 287.63563639119 1977.1477207069
vector 2452  Scenario2_SlowSpeed.node[86].veinsmobility  posx  ETV
2452	1338561 1681 209120 24019393 5 60 56 516.75 848.30581666087 36108.59668568 23950702.628694
vector 2453  Scenario2_SlowSpeed.node[86].veinsmobility  posy  ETV
2453	1337128 1433 209120 24019393 5 60 56 434.03344403222 526.65 28664.414709208 14719528.414735
vector 2459  Scenario2_SlowSpeed.node[87].veinsmobility  posx  ETV
2459	1347359 1325 209120 24019393 5 60 56 513.45 520.05 29072.244174563 15092935.567455
vector 2460  Scenario2_SlowSpeed.node[87].veinsmobility  posy  ETV
2460	1345561 1798 209120 24019393 5 60 56 489.6152553994 850.46866786301 35935.868952551 23808756.758064
vector 2466  Scenario2_SlowSpeed.node[88].veinsmobility  posx  ETV
2466	1355495 1299 209120 24019393 5 60 56 513.45 516.75 28928.1 14943512.52
vector 2467  Scenario2_SlowSpeed.node[88].veinsmobility  posy  ETV
2467	1353700 1795 209120 24019393 5 60 56 401.86269079092 452.08990222676 24475.771701639 10706374.059798
vector 2473  Scenario2_SlowSpeed.node[89].veinsmobility  posx  ETV
2473	1363034 1299 209120 24019393 5 60 56 513.45 520.05 28934.7 14950420.74
vector 2474  Scenario2_SlowSpeed.node[89].veinsmobility  posy  ETV
2474	1361235 1799 209120 24019393 5 60 56 319.14798308699 399.04906802701 20760.341700932 7720752.5522644
vector 2480  Scenario2_SlowSpeed.node[90].veinsmobility  posx  ETV
2480	1371228 1299 209120 24019393 5 60 56 513.45 516.75 28921.5 14936713.2
vector 2481  Scenario2_SlowSpeed.node[90].veinsmobility  posy  ETV
2481	1369430 1798 209120 24019393 5 60 56 350.42131435657 419.48651602308 22455.621931781 9027825.5697348
vector 2357  Scenario2_SlowSpeed.node[72].veinsmobility  acceleration  ETV
2357	1190019 1939 209120 24019393 5 60 56 -0.11314970969921 1.9881144879269 3.9270277736062 7.592771090331
vector 2358  Scenario2_SlowSpeed.node[72].veinsmobility  co2emission  ETV
2358	1188220 1799 209120 24019393 5 60 56 1.3202712945079 5.0645250745152 92.645314757 173.28165125726
vector 2364  Scenario2_SlowSpeed.node[73].veinsmobility  acceleration  ETV
2364	1198557 1748 209120 24019393 5 60 56 -2.1733364972978 2.1021115575777 -3.8349975460433 42.55450289374
vector 2365  Scenario2_SlowSpeed.node[73].veinsmobility  co2emission  ETV
2365	1196995 1562 209120 24019393 5 60 56 0.973 5.2263230641188 89.917283645045 200.59668824647
vector 2371  Scenario2_SlowSpeed.node[74].veinsmobility  acceleration  ETV
2371	1206816 1934 209120 24019393 5 60 56 -0.72087939203129 2.0861589232343 -0.68882456796442 9.7765244341965
vector 2372  Scenario2_SlowSpeed.node[74].veinsmobility  co2emission  ETV
2372	1205096 1720 209120 24019393 5 60 56 0.973 4.6414675470269 87.913990227804 160.13291116453
vector 2378  Scenario2_SlowSpeed.node[75].veinsmobility  acceleration  ETV
2378	1215569 1935 209120 24019393 5 60 56 -0.10159645665204 2.1710551595048 4.3108726851765 8.3733852489548
vector 2379  Scenario2_SlowSpeed.node[75].veinsmobility  co2emission  ETV
2379	1213773 1796 209120 24019393 5 60 56 1.3430712129153 5.5184143502948 92.987686949131 175.4727850958
vector 2385  Scenario2_SlowSpeed.node[76].veinsmobility  acceleration  ETV
2385	1232034 1931 209120 24019393 5 60 56 -0.25062073238096 2.0158477604121 4.7557442440686 8.376559544108
vector 2386  Scenario2_SlowSpeed.node[76].veinsmobility  co2emission  ETV
2386	1230248 1786 209120 24019393 5 60 56 0.973 4.9398848615489 93.249519838496 173.25315739097
vector 2392  Scenario2_SlowSpeed.node[77].veinsmobility  acceleration  ETV
2392	1240783 1929 209120 24019393 5 60 56 -1.5847269739415 1.9363540420192 5.5135127643382 14.08779333673
vector 2393  Scenario2_SlowSpeed.node[77].veinsmobility  co2emission  ETV
2393	1238998 1785 209120 24019393 5 60 56 0.973 5.074990710004 96.266311494706 190.40215456051
vector 2399  Scenario2_SlowSpeed.node[78].veinsmobility  acceleration  ETV
2399	1249549 1921 209120 24019393 5 60 56 -0.10121684897391 1.4639804358371 6.2449915312721 6.0092853967285
vector 2400  Scenario2_SlowSpeed.node[78].veinsmobility  co2emission  ETV
2400	1247756 1793 209120 24019393 5 60 56 1.3437544741627 3.5378400220619 92.942509033523 161.48964636736
vector 2406  Scenario2_SlowSpeed.node[79].veinsmobility  acceleration  ETV
2406	1258155 1902 209120 24019393 5 60 56 -2.0931256447333 2.1016330119781 5.5167182339105 46.624383782672
vector 2407  Scenario2_SlowSpeed.node[79].veinsmobility  co2emission  ETV
2407	1256515 1640 209120 24019393 5 60 56 0.973 5.4154035877003 96.657522947072 236.23934891412
vector 2412  Scenario2_SlowSpeed.node[80].veinsmobility  speed  ETV
2412	1268450 1737 209120 24019393 5 60 56 0 4.4704817215405 57.09918365552 137.06370529273
vector 2419  Scenario2_SlowSpeed.node[81].veinsmobility  speed  ETV
2419	1277007 1800 209120 24019393 5 60 56 2.8800083594026 7.99741507194 434.80575940294 3410.3153488919
vector 2426  Scenario2_SlowSpeed.node[82].veinsmobility  speed  ETV
2426	1285082 1641 209120 24019393 5 60 56 0 7.9860340967798 90.078007357167 430.90973370433
vector 2433  Scenario2_SlowSpeed.node[83].veinsmobility  speed  ETV
2433	1293203 1846 209120 24019393 5 60 56 4.5655048837726e-14 7.9781904742518 145.97568600519 813.44067076613
vector 2440  Scenario2_SlowSpeed.node[84].veinsmobility  speed  ETV
2440	1310260 1750 209120 24019393 5 60 56 0 6.5344769218654 62.934811832874 184.58436718763
vector 2447  Scenario2_SlowSpeed.node[85].veinsmobility  speed  ETV
2447	1327093 1510 209120 24019393 5 60 56 0 5.7998816055476 67.546599437171 202.193310184
vector 2487  Scenario2_SlowSpeed.node[91].veinsmobility  posx  ETV
2487	1378825 1278 292927 24019393 6 60 55 513.45 516.75 28309.05 14571092.4975
vector 2488  Scenario2_SlowSpeed.node[91].veinsmobility  posy  ETV
2488	1377132 1693 292927 24019393 6 60 55 360.09539683952 499.646 25082.728560717 11538328.46349
vector 2413  Scenario2_SlowSpeed.node[80].veinsmobility  acceleration  ETV
2413	1266661 1789 292927 24019393 6 60 55 -4.1560289023479 1.6155743091934 -2.0124735205234 24.38755957243
vector 2414  Scenario2_SlowSpeed.node[80].veinsmobility  co2emission  ETV
2414	1265096 1565 292927 24019393 6 60 55 0.973 2.4383783440488 63.738541678081 77.806938897763
vector 2420  Scenario2_SlowSpeed.node[81].veinsmobility  acceleration  ETV
2420	1275100 1907 292927 24019393 6 60 55 -0.10318119807867 2.0675189013151 5.0267806091624 9.0709716493309
vector 2421  Scenario2_SlowSpeed.node[81].veinsmobility  co2emission  ETV
2421	1273335 1765 292927 24019393 6 60 55 1.3390865157715 4.3964049476235 91.993224174734 171.96793632936
vector 2427  Scenario2_SlowSpeed.node[82].veinsmobility  acceleration  ETV
2427	1283462 1620 292927 24019393 6 60 55 -4.5 1.8420353832934 -3.888603513303 46.638623110587
vector 2428  Scenario2_SlowSpeed.node[82].veinsmobility  co2emission  ETV
2428	1282001 1461 292927 24019393 6 60 55 0.973 4.435259011019 70.253717787825 113.82224964738
vector 2434  Scenario2_SlowSpeed.node[83].veinsmobility  acceleration  ETV
2434	1291308 1895 292927 24019393 6 60 55 -3.6 2.0564988007001 -2.8125919053628 25.106240384639
vector 2435  Scenario2_SlowSpeed.node[83].veinsmobility  co2emission  ETV
2435	1289788 1520 292927 24019393 6 60 55 0.973 4.7288716353414 72.37603587181 119.83625686958
vector 2441  Scenario2_SlowSpeed.node[84].veinsmobility  acceleration  ETV
2441	1308459 1801 292927 24019393 6 60 55 -2.6461109347017 1.7087875550748 -3.3838708531486 17.594878200256
vector 2442  Scenario2_SlowSpeed.node[84].veinsmobility  co2emission  ETV
2442	1306901 1558 292927 24019393 6 60 55 0.973 3.7215872352254 65.375457611285 90.968724249921
vector 2448  Scenario2_SlowSpeed.node[85].veinsmobility  acceleration  ETV
2448	1325560 1533 292927 24019393 6 60 55 -2.4305846706997 2.1524380336958 -2.4410871689378 20.753659554502
vector 2449  Scenario2_SlowSpeed.node[85].veinsmobility  co2emission  ETV
2449	1324198 1362 292927 24019393 6 60 55 0.973 3.7233796138068 63.326537711753 86.433177261907
vector 2454  Scenario2_SlowSpeed.node[86].veinsmobility  speed  ETV
2454	1335360 1768 292927 24019393 6 60 55 2.7732682308613 7.9992804675549 426.55286765716 3347.3057013729
vector 2461  Scenario2_SlowSpeed.node[87].veinsmobility  speed  ETV
2461	1343791 1770 292927 24019393 6 60 55 0.79995970642892 7.9918965647276 372.68975261301 2788.9418780134
vector 2468  Scenario2_SlowSpeed.node[88].veinsmobility  speed  ETV
2468	1352006 1694 292927 24019393 6 60 55 0 4.7828883215805 51.773158126051 118.95125106669
vector 2475  Scenario2_SlowSpeed.node[89].veinsmobility  speed  ETV
2475	1359705 1530 292927 24019393 6 60 55 0 6.8778052614833 89.058273264323 299.8955497145
vector 2482  Scenario2_SlowSpeed.node[90].veinsmobility  speed  ETV
2482	1367692 1738 292927 24019393 6 60 55 0 5.6401307758491 69.145560382372 197.59740558821
vector 2494  Scenario2_SlowSpeed.node[92].veinsmobility  posx  ETV
2494	1386130 1257 379224 24019393 7 60 54 513.45 516.75 27891.3 14406051.735
vector 2495  Scenario2_SlowSpeed.node[92].veinsmobility  posy  ETV
2495	1384388 1742 379224 24019393 7 60 54 313.23265391109 386.22629710478 19798.520530808 7282992.7713865
vector 2501  Scenario2_SlowSpeed.node[93].veinsmobility  posx  ETV
2501	1393661 1257 379224 24019393 7 60 54 513.45 520.05 27911.1 14426602.155
vector 2502  Scenario2_SlowSpeed.node[93].veinsmobility  posy  ETV
2502	1391936 1725 379224 24019393 7 60 54 307.92315608183 384.66175736522 19201.002336066 6849881.9998366
vector 2508  Scenario2_SlowSpeed.node[94].veinsmobility  posx  ETV
2508	1401813 1284 379224 24019393 7 60 54 513.45 520.05 28047.422012455 14567871.503086
vector 2509  Scenario2_SlowSpeed.node[94].veinsmobility  posy  ETV
2509	1400086 1727 379224 24019393 7 60 54 507.12069461453 873.75889637897 36071.896459103 24837287.879324
vector 2515  Scenario2_SlowSpeed.node[95].veinsmobility  posx  ETV
2515	1418604 1257 379224 24019393 7 60 54 513.45 516.75 27891.3 14406051.735
vector 2516  Scenario2_SlowSpeed.node[95].veinsmobility  posy  ETV
2516	1416865 1739 379224 24019393 7 60 54 385.82035195483 429.98954817672 22512.737290343 9395263.6228806
vector 2522  Scenario2_SlowSpeed.node[96].veinsmobility  posx  ETV
2522	1658673 1737 379224 24019393 7 60 54 633.29939361219 1022.2497393385 45407.725890922 38956378.960636
vector 2523  Scenario2_SlowSpeed.node[96].veinsmobility  posy  ETV
2523	1657416 1257 379224 24019393 7 60 54 516.75 520.05 28076.1 14597565.255
vector 2455  Scenario2_SlowSpeed.node[86].veinsmobility  acceleration  ETV
2455	1333487 1873 379224 24019393 7 60 54 -0.10576972203562 1.7732788943639 5.1898720907804 8.8872055296349
vector 2456  Scenario2_SlowSpeed.node[86].veinsmobility  co2emission  ETV
2456	1331754 1733 379224 24019393 7 60 54 1.3343685025459 4.600334303796 90.605947103647 170.28036764357
vector 2462  Scenario2_SlowSpeed.node[87].veinsmobility  acceleration  ETV
2462	1341943 1848 379224 24019393 7 60 54 -1.4378745620729 1.5141143883185 5.2248068768003 11.184427658296
vector 2463  Scenario2_SlowSpeed.node[87].veinsmobility  co2emission  ETV
2463	1340242 1701 379224 24019393 7 60 54 0.973 3.0263936397432 88.303272011958 152.55283739836
vector 2469  Scenario2_SlowSpeed.node[88].veinsmobility  acceleration  ETV
2469	1350216 1790 379224 24019393 7 60 54 -2.0514968464398 1.0264532434814 -1.4597222537722 11.220481513497
vector 2470  Scenario2_SlowSpeed.node[88].veinsmobility  co2emission  ETV
2470	1348684 1532 379224 24019393 7 60 54 0.973 2.3435306312071 61.854282376943 74.622810963913
vector 2476  Scenario2_SlowSpeed.node[89].veinsmobility  acceleration  ETV
2476	1358172 1533 379224 24019393 7 60 54 -1.9444444444444 1.88801671925 4.1902852088447 19.222202841829
vector 2477  Scenario2_SlowSpeed.node[89].veinsmobility  co2emission  ETV
2477	1356794 1378 379224 24019393 7 60 54 0.973 3.720364703038 68.123740973717 107.95484089669
vector 2483  Scenario2_SlowSpeed.node[90].veinsmobility  acceleration  ETV
[...]
3505	1598518 519 15411041 24019393 46 60 15 -0.089539479092116 1.6095648992551 4.8179606129812 5.6471336349295
vector 3506  Scenario2_SlowSpeed.node[236].veinsmobility  co2emission  ETV
3506	1598024 494 15411041 24019393 46 60 15 1.3604848561819 3.9077648943603 29.688357363728 66.762510137401
vector 3512  Scenario2_SlowSpeed.node[237].veinsmobility  acceleration  ETV
3512	1600995 523 15411041 24019393 46 60 15 -0.44529986083824 1.9116872876726 4.2839402460573 8.6293896906728
vector 3513  Scenario2_SlowSpeed.node[237].veinsmobility  co2emission  ETV
3513	1600522 473 15411041 24019393 46 60 15 0.973 5.2183090931367 29.362180699394 75.511249841101
vector 3519  Scenario2_SlowSpeed.node[238].veinsmobility  acceleration  ETV
3519	1722903 522 15411041 24019393 46 60 15 -0.066997385302093 1.8596300453087 4.848413194939 7.837856847632
vector 3520  Scenario2_SlowSpeed.node[238].veinsmobility  co2emission  ETV
3520	1722410 493 15411041 24019393 46 60 15 1.4089435992299 4.2513574275189 30.267530499618 74.393745605222
vector 3525  Scenario2_SlowSpeed.node[239].veinsmobility  speed  ETV
3525	1603889 461 15993165 24019393 47 60 14 3.430563815459 7.9485180831957 102.00198964761 764.57712666101
vector 3532  Scenario2_SlowSpeed.node[240].veinsmobility  speed  ETV
3532	1606082 460 15993165 24019393 47 60 14 2.560101189555 7.9998528039199 96.022446770006 705.54675452347
vector 3539  Scenario2_SlowSpeed.node[241].veinsmobility  speed  ETV
3539	1725800 460 15993165 24019393 47 60 14 3.761397941966 7.9757891321974 104.20784060717 795.36984844339
vector 3544  Scenario2_SlowSpeed.node[242].veinsmobility  posx  ETV
3544	1608955 312 16578006 24019393 48 60 13 516.75 520.05 6750.75 3505611.7125
vector 3545  Scenario2_SlowSpeed.node[242].veinsmobility  posy  ETV
3545	1608528 427 16578006 24019393 48 60 13 27.851070558525 100.84158836474 748.32577316066 51039.247337823
vector 3551  Scenario2_SlowSpeed.node[243].veinsmobility  posx  ETV
3551	1615371 312 16578006 24019393 48 60 13 513.45 516.75 6707.85 3461198.3325
vector 3552  Scenario2_SlowSpeed.node[243].veinsmobility  posy  ETV
3552	1614943 428 16578006 24019393 48 60 13 27.750727616595 102.16354704665 753.44960636472 52044.584948186
vector 3558  Scenario2_SlowSpeed.node[244].veinsmobility  posx  ETV
3558	1728570 427 16578006 24019393 48 60 13 942.53822464774 1021.3508382545 12842.375781842 12695910.315189
vector 3559  Scenario2_SlowSpeed.node[244].veinsmobility  posy  ETV
3559	1728258 312 16578006 24019393 48 60 13 516.75 516.75 6717.75 3471397.3125
vector 3526  Scenario2_SlowSpeed.node[239].veinsmobility  acceleration  ETV
3526	1603436 453 16578006 24019393 48 60 13 -0.11108799947321 2.0320465198636 4.2090158211092 8.273288190005
vector 3527  Scenario2_SlowSpeed.node[239].veinsmobility  co2emission  ETV
3527	1603008 428 16578006 24019393 48 60 13 1.3193672919824 5.1430447875748 26.330561924573 70.051508626686
vector 3533  Scenario2_SlowSpeed.node[240].veinsmobility  acceleration  ETV
3533	1605630 452 16578006 24019393 48 60 13 -0.091808481749613 1.8963071365654 5.393591136802 8.5285545321315
vector 3534  Scenario2_SlowSpeed.node[240].veinsmobility  co2emission  ETV
3534	1605205 425 16578006 24019393 48 60 13 1.362197570004 4.930644952465 27.293940951179 72.837463666333
vector 3540  Scenario2_SlowSpeed.node[241].veinsmobility  acceleration  ETV
3540	1725344 456 16578006 24019393 48 60 13 -0.034778809931595 1.9862680430664 4.198121047978 7.4003510366801
vector 3541  Scenario2_SlowSpeed.node[241].veinsmobility  co2emission  ETV
3541	1724915 429 16578006 24019393 48 60 13 1.4699081643934 5.1391678794012 26.660592854199 70.049539028887
vector 3565  Scenario2_SlowSpeed.node[245].veinsmobility  posx  ETV
3565	1730327 392 17169014 24019393 49 60 12 956.20696977156 1022.374318342 11953.900378901 11914208.399584
vector 3566  Scenario2_SlowSpeed.node[245].veinsmobility  posy  ETV
3566	1730039 288 17169014 24019393 49 60 12 516.75 516.75 6201 3204366.75
vector 3546  Scenario2_SlowSpeed.node[242].veinsmobility  speed  ETV
3546	1608132 396 17169014 24019393 49 60 12 2.8893917223584 7.9337431713725 83.78592263557 611.3928589093
vector 3553  Scenario2_SlowSpeed.node[243].veinsmobility  speed  ETV
3553	1614548 395 17169014 24019393 49 60 12 2.9380366890714 7.9855065374775 85.500164702081 638.92964580634
vector 3560  Scenario2_SlowSpeed.node[244].veinsmobility  speed  ETV
3560	1727863 395 17169014 24019393 49 60 12 4.0260105867729 7.9726011586026 89.342520053773 680.98535828851
vector 3572  Scenario2_SlowSpeed.node[246].veinsmobility  posx  ETV
3572	1616984 264 17766468 24019393 50 60 11 516.75 516.75 5684.25 2937336.1875
vector 3573  Scenario2_SlowSpeed.node[246].veinsmobility  posy  ETV
3573	1616623 361 17766468 24019393 50 60 11 27.974500107976 89.097603781763 578.44633693374 35326.863734621
vector 3579  Scenario2_SlowSpeed.node[247].veinsmobility  posx  ETV
3579	1618525 264 17766468 24019393 50 60 11 513.45 516.75 5671.05 2923737.5475
vector 3580  Scenario2_SlowSpeed.node[247].veinsmobility  posy  ETV
3580	1618163 362 17766468 24019393 50 60 11 27.837675946046 78.068491874612 513.55954162036 27116.626455095
vector 3547  Scenario2_SlowSpeed.node[242].veinsmobility  acceleration  ETV
3547	1607758 374 17766468 24019393 50 60 11 -0.1125915896484 1.9788457760843 5.0443514490141 8.0326892658216
vector 3548  Scenario2_SlowSpeed.node[242].veinsmobility  co2emission  ETV
3548	1607396 362 17766468 24019393 50 60 11 1.318402062961 4.7142303131837 24.078446817321 63.473739354734
vector 3554  Scenario2_SlowSpeed.node[243].veinsmobility  acceleration  ETV
3554	1614165 383 17766468 24019393 50 60 11 -0.099275471796282 1.8592501281761 4.9384428205691 8.5821604097988
vector 3555  Scenario2_SlowSpeed.node[243].veinsmobility  co2emission  ETV
3555	1613803 362 17766468 24019393 50 60 11 1.3467428712481 4.3767780985615 24.112095832185 67.164885193947
vector 3561  Scenario2_SlowSpeed.node[244].veinsmobility  acceleration  ETV
3561	1727473 390 17766468 24019393 50 60 11 -0.072106652455404 2.0655698409374 3.9465905718298 7.6866913988789
vector 3562  Scenario2_SlowSpeed.node[244].veinsmobility  co2emission  ETV
3562	1727111 362 17766468 24019393 50 60 11 1.3990455709483 5.0623566652151 23.438294062997 67.112501861758
vector 3567  Scenario2_SlowSpeed.node[245].veinsmobility  speed  ETV
3567	1729676 363 17766468 24019393 50 60 11 2.5308302897865 7.9675782922562 77.253992650879 574.64267690431
vector 3586  Scenario2_SlowSpeed.node[248].veinsmobility  posx  ETV
3586	1731792 330 18368259 24019393 51 60 10 970.79575954708 1022.1521930516 10023.950834844 10051164.990753
vector 3587  Scenario2_SlowSpeed.node[248].veinsmobility  posy  ETV
3587	1731552 240 18368259 24019393 51 60 10 516.75 516.75 5167.5 2670305.625
vector 3568  Scenario2_SlowSpeed.node[245].veinsmobility  acceleration  ETV
3568	1729326 350 18368259 24019393 51 60 10 -0.086347132627853 2.2386231102981 5.3504008698419 10.145520617751
vector 3569  Scenario2_SlowSpeed.node[245].veinsmobility  co2emission  ETV
3569	1728997 329 18368259 24019393 51 60 10 1.3714073920576 4.2817428420183 23.044136167596 67.620583122075
vector 3574  Scenario2_SlowSpeed.node[246].veinsmobility  speed  ETV
3574	1616293 330 18368259 24019393 51 60 10 3.4642257531454 7.9873472078121 71.978132912825 539.45192157816
vector 3581  Scenario2_SlowSpeed.node[247].veinsmobility  speed  ETV
3581	1617834 329 18368259 24019393 51 60 10 3.0725889607389 7.7985455514096 60.909275124895 404.40590236846
vector 3593  Scenario2_SlowSpeed.node[249].veinsmobility  posx  ETV
3593	1619819 216 18975199 24019393 52 60 9 516.75 520.05 4670.55 2423803.7025
vector 3594  Scenario2_SlowSpeed.node[249].veinsmobility  posy  ETV
3594	1619522 297 18975199 24019393 52 60 9 28.116483913436 71.192938691065 398.3729211923 19675.589803671
vector 3600  Scenario2_SlowSpeed.node[250].veinsmobility  posx  ETV
3600	1621059 216 18975199 24019393 52 60 9 513.45 516.75 4640.85 2393076.0825
vector 3601  Scenario2_SlowSpeed.node[250].veinsmobility  posy  ETV
3601	1620764 295 18975199 24019393 52 60 9 27.96342541243 67.419930129313 386.98659526075 18329.254476384
vector 3575  Scenario2_SlowSpeed.node[246].veinsmobility  acceleration  ETV
3575	1615980 313 18975199 24019393 52 60 9 -0.11731738588773 2.2395889724477 4.4588191766687 8.7597360618066
vector 3576  Scenario2_SlowSpeed.node[246].veinsmobility  co2emission  ETV
3576	1615683 297 18975199 24019393 52 60 9 1.3121670166754 5.6127155362621 20.84704946047 65.32478320079
vector 3582  Scenario2_SlowSpeed.node[247].veinsmobility  acceleration  ETV
3582	1617530 304 18975199 24019393 52 60 9 -0.85106877716827 1.9571183661954 4.7259565906707 8.9248170874017
vector 3583  Scenario2_SlowSpeed.node[247].veinsmobility  co2emission  ETV
3583	1617248 282 18975199 24019393 52 60 9 0.973 4.3924049604737 20.688033870105 57.547951972733
vector 3588  Scenario2_SlowSpeed.node[248].veinsmobility  speed  ETV
3588	1731256 296 18975199 24019393 52 60 9 2.9126975969708 7.952526715023 62.043528905134 454.02876695494
vector 3607  Scenario2_SlowSpeed.node[251].veinsmobility  posx  ETV
3607	1732946 264 19587718 24019393 53 60 8 984.41170049272 1021.9124959879 8063.1296734369 8128181.570176
vector 3608  Scenario2_SlowSpeed.node[251].veinsmobility  posy  ETV
3608	1732754 192 19587718 24019393 53 60 8 516.75 516.75 4134 2136244.5
vector 3589  Scenario2_SlowSpeed.node[248].veinsmobility  acceleration  ETV
3589	1730978 278 19587718 24019393 53 60 8 -0.048595910265576 1.9453869137843 4.9641518412466 8.8283699503492
vector 3590  Scenario2_SlowSpeed.node[248].veinsmobility  co2emission  ETV
3590	1730719 259 19587718 24019393 53 60 8 1.443684424918 4.5643913428143 19.564752920136 60.046039271098
vector 3595  Scenario2_SlowSpeed.node[249].veinsmobility  speed  ETV
3595	1619258 264 19587718 24019393 53 60 8 3.1024768454625 7.9851732712681 53.793216242804 387.58180352894
vector 3602  Scenario2_SlowSpeed.node[250].veinsmobility  speed  ETV
3602	1620501 263 19587718 24019393 53 60 8 3.3922687381686 7.5217416941749 49.537311377051 323.15550894357
vector 3614  Scenario2_SlowSpeed.node[252].veinsmobility  posx  ETV
3614	1622038 168 20204794 24019393 54 60 7 516.75 520.05 3627.15 1879478.2575
vector 3615  Scenario2_SlowSpeed.node[252].veinsmobility  posy  ETV
3615	1621807 231 20204794 24019393 54 60 7 28.475066062909 58.619820181749 276.69020206204 11757.952034308
vector 3621  Scenario2_SlowSpeed.node[253].veinsmobility  posx  ETV
3621	1622967 168 20204794 24019393 54 60 7 513.45 516.75 3604.05 1855615.2975
vector 3622  Scenario2_SlowSpeed.node[253].veinsmobility  posy  ETV
3622	1622736 231 20204794 24019393 54 60 7 27.839715409503 50.268584657832 250.35864635289 9380.90320187
vector 3596  Scenario2_SlowSpeed.node[249].veinsmobility  acceleration  ETV
3596	1619019 239 20204794 24019393 54 60 7 -0.030437800048385 2.039529139495 4.8522586257573 8.0320589990681
vector 3597  Scenario2_SlowSpeed.node[249].veinsmobility  co2emission  ETV
3597	1618789 230 20204794 24019393 54 60 7 1.4818840741756 4.6377367144781 17.913812965179 57.193228252122
vector 3603  Scenario2_SlowSpeed.node[250].veinsmobility  acceleration  ETV
3603	1620265 236 20204794 24019393 54 60 7 0.099852137767468 1.5811310482111 4.1294729560064 4.1490515661622
vector 3604  Scenario2_SlowSpeed.node[250].veinsmobility  co2emission  ETV
3604	1620035 230 20204794 24019393 54 60 7 1.6931670117602 3.692665201035 16.124845307711 39.881823415565
vector 3609  Scenario2_SlowSpeed.node[251].veinsmobility  speed  ETV
3609	1732525 229 20204794 24019393 54 60 7 3.4851781942639 7.9488925908343 48.212323825948 350.24431149357
vector 3628  Scenario2_SlowSpeed.node[254].veinsmobility  posx  ETV
3628	1733787 196 20827588 24019393 55 60 6 999.00009756689 1021.5503407676 6081.4013331274 6164315.9623809
vector 3629  Scenario2_SlowSpeed.node[254].veinsmobility  posy  ETV
3629	1733643 144 20827588 24019393 55 60 6 516.75 516.75 3100.5 1602183.375
vector 3610  Scenario2_SlowSpeed.node[251].veinsmobility  acceleration  ETV
3610	1732319 206 20827588 24019393 55 60 6 -0.021122020371258 2.0232608730393 4.462062617886 8.2762581956995
vector 3611  Scenario2_SlowSpeed.node[251].veinsmobility  co2emission  ETV
3611	1732122 197 20827588 24019393 55 60 6 1.4981084777848 5.1611457167486 16.200522167199 55.680594274112
vector 3616  Scenario2_SlowSpeed.node[252].veinsmobility  speed  ETV
3616	1621610 197 20827588 24019393 55 60 6 3.7323906710826 7.941263631722 40.447681102668 287.35869330906
vector 3623  Scenario2_SlowSpeed.node[253].veinsmobility  speed  ETV
3623	1622538 198 20827588 24019393 55 60 6 3.0003812995852 7.9158111435641 33.292584634665 206.90182186374
vector 3635  Scenario2_SlowSpeed.node[255].veinsmobility  posx  ETV
3635	1623631 120 21453951 24019393 56 60 5 516.75 520.05 2590.35 1341995.6925
vector 3636  Scenario2_SlowSpeed.node[255].veinsmobility  posy  ETV
3636	1623466 165 21453951 24019393 56 60 5 28.105140553317 41.486026791655 163.47728318996 5474.4534806129
vector 3642  Scenario2_SlowSpeed.node[256].veinsmobility  posx  ETV
3642	1624243 120 21453951 24019393 56 60 5 513.45 516.75 2573.85 1324953.8325
vector 3643  Scenario2_SlowSpeed.node[256].veinsmobility  posy  ETV
3643	1624079 164 21453951 24019393 56 60 5 27.963664789666 41.083045418246 162.26359320482 5390.5980075092
vector 3649  Scenario2_SlowSpeed.node[257].veinsmobility  posx  ETV
3649	1734432 146 21453951 24019393 56 60 5 1012.6768161246 1022.4 5096.4985969081 5194928.0300712
vector 3650  Scenario2_SlowSpeed.node[257].veinsmobility  posy  ETV
3650	1734312 120 21453951 24019393 56 60 5 516.75 516.75 2583.75 1335152.8125
vector 3617  Scenario2_SlowSpeed.node[252].veinsmobility  acceleration  ETV
3617	1621439 171 21453951 24019393 56 60 5 -0.024996937448159 1.9362509298953 4.2088729606393 6.753283808931
vector 3618  Scenario2_SlowSpeed.node[252].veinsmobility  co2emission  ETV
3618	1621275 164 21453951 24019393 56 60 5 1.489310690513 4.3055311325111 14.245723149097 47.528001402335
vector 3624  Scenario2_SlowSpeed.node[253].veinsmobility  acceleration  ETV
3624	1622371 167 21453951 24019393 56 60 5 0.025761216506361 2.0501399982953 4.9154298439789 8.0045148915679
vector 3625  Scenario2_SlowSpeed.node[253].veinsmobility  co2emission  ETV
3625	1622206 165 21453951 24019393 56 60 5 1.4795794957093 4.6577287089356 14.568258376966 52.238625905175
vector 3630  Scenario2_SlowSpeed.node[254].veinsmobility  speed  ETV
3630	1733478 165 21453951 24019393 56 60 5 3.8615547239218 7.9526248042053 33.205697489731 233.80850416712
vector 3631  Scenario2_SlowSpeed.node[254].veinsmobility  acceleration  ETV
3631	1733342 136 22089941 24019393 57 60 4 -0.021444639787077 2.0778317531408 4.0696254404963 7.6993274712694
vector 3632  Scenario2_SlowSpeed.node[254].veinsmobility  co2emission  ETV
3632	1733210 132 22089941 24019393 57 60 4 1.4976983545262 5.4185271340268 12.719267239768 50.479985692569
vector 3637  Scenario2_SlowSpeed.node[255].veinsmobility  speed  ETV
3637	1623334 132 22089941 24019393 57 60 4 3.4796463384469 7.9243103593588 24.003878526356 156.07427264783
vector 3644  Scenario2_SlowSpeed.node[256].veinsmobility  speed  ETV
3644	1623947 132 22089941 24019393 57 60 4 3.3699620306069 7.2629031810885 22.753771432729 138.89829504952
vector 3651  Scenario2_SlowSpeed.node[257].veinsmobility  speed  ETV
3651	1734180 132 22089941 24019393 57 60 4 2.1940109600276 7.9843347878265 20.378113655219 122.56644599616
vector 3656  Scenario2_SlowSpeed.node[258].veinsmobility  posx  ETV
3656	1624594 72 22726199 24019393 58 60 3 516.75 516.75 1550.25 801091.6875
vector 3657  Scenario2_SlowSpeed.node[258].veinsmobility  posy  ETV
3657	1624495 99 22726199 24019393 58 60 3 28.457887397627 31.475046819166 88.39082161442 2610.3812825407
vector 3663  Scenario2_SlowSpeed.node[259].veinsmobility  posx  ETV
3663	1629129 72 22726199 24019393 58 60 3 513.45 513.45 1540.35 790892.7075
vector 3664  Scenario2_SlowSpeed.node[259].veinsmobility  posy  ETV
3664	1629030 99 22726199 24019393 58 60 3 28.271074511139 30.985851892646 87.528000914924 2558.6303255417
vector 3670  Scenario2_SlowSpeed.node[260].veinsmobility  posx  ETV
3670	1734782 99 22726199 24019393 58 60 3 1020.5885026063 1022.3242891812 3065.2370809687 3131894.7961519
vector 3671  Scenario2_SlowSpeed.node[260].veinsmobility  posy  ETV
3671	1734710 72 22726199 24019393 58 60 3 516.75 516.75 1550.25 801091.6875
vector 3638  Scenario2_SlowSpeed.node[255].veinsmobility  acceleration  ETV
3638	1623234 100 22726199 24019393 58 60 3 0.67761181169994 1.8934752667672 4.4446640209119 7.5546969124752
vector 3639  Scenario2_SlowSpeed.node[255].veinsmobility  co2emission  ETV
3639	1623135 99 22726199 24019393 58 60 3 2.8323120100166 4.8016043542131 11.433479296763 45.514074174762
vector 3645  Scenario2_SlowSpeed.node[256].veinsmobility  acceleration  ETV
3645	1623847 100 22726199 24019393 58 60 3 0.38583984090933 1.8738808502476 3.8929411504815 6.3277108925141
vector 3646  Scenario2_SlowSpeed.node[256].veinsmobility  co2emission  ETV
3646	1623751 96 22726199 24019393 58 60 3 2.171112810438 4.1786494886113 10.094192973969 36.195603463601
vector 3652  Scenario2_SlowSpeed.node[257].veinsmobility  acceleration  ETV
3652	1734082 98 22726199 24019393 58 60 3 1.8880755992827 1.9927504697232 5.7903238277989 11.182065594024
vector 3653  Scenario2_SlowSpeed.node[257].veinsmobility  co2emission  ETV
3653	1733983 99 22726199 24019393 58 60 3 3.2027258744572 5.1752666637139 12.730751709568 55.987350471646
vector 3658  Scenario2_SlowSpeed.node[258].veinsmobility  speed  ETV
3658	1624429 66 23373374 24019393 59 60 2 4.0072185669503 6.0796519611556 10.086870528106 53.019968612094
vector 3665  Scenario2_SlowSpeed.node[259].veinsmobility  speed  ETV
3665	1628964 66 23373374 24019393 59 60 2 3.5735053343019 3.6023846342524 7.1758899685543 25.747115427382
vector 3672  Scenario2_SlowSpeed.node[260].veinsmobility  speed  ETV
3672	1734644 66 23373374 24019393 59 60 2 2.6719666774688 4.5947360364977 7.2667027139665 28.251005170594
vector 3677  Scenario2_SlowSpeed.node[261].veinsmobility  posx  ETV
3677	1629234 24 24019393 24019393 60 60 1 516.75 516.75 516.75 267030.5625
vector 3678  Scenario2_SlowSpeed.node[261].veinsmobility  posy  ETV
3678	1629201 33 24019393 24019393 60 60 1 28.652939694611 28.652939694611 28.652939694611 820.99095314301
vector 3684  Scenario2_SlowSpeed.node[262].veinsmobility  posx  ETV
3684	1629291 24 24019393 24019393 60 60 1 513.45 513.45 513.45 263630.9025
vector 3685  Scenario2_SlowSpeed.node[262].veinsmobility  posy  ETV
3685	1629258 33 24019393 24019393 60 60 1 28.470390807098 28.470390807098 28.470390807098 810.56315270889
vector 3691  Scenario2_SlowSpeed.node[263].veinsmobility  posx  ETV
3691	1742360 33 24019393 24019393 60 60 1 1022.1498830365 1022.1498830365 1022.1498830365 1044790.3833915
vector 3692  Scenario2_SlowSpeed.node[263].veinsmobility  posy  ETV
3692	1742336 24 24019393 24019393 60 60 1 516.75 516.75 516.75 267030.5625
vector 3659  Scenario2_SlowSpeed.node[258].veinsmobility  acceleration  ETV
3659	1624396 33 24019393 24019393 60 60 1 2.0724333942053 2.0724333942053 2.0724333942053 4.2949801734173
vector 3660  Scenario2_SlowSpeed.node[258].veinsmobility  co2emission  ETV
3660	1624363 33 24019393 24019393 60 60 1 4.4605628998057 4.4605628998057 4.4605628998057 19.896621383123
vector 3666  Scenario2_SlowSpeed.node[259].veinsmobility  acceleration  ETV
3666	1628928 36 24019393 24019393 60 60 1 -0.028879299950528 -0.028879299950528 -0.028879299950528 0.00083401396563257
vector 3667  Scenario2_SlowSpeed.node[259].veinsmobility  co2emission  ETV
3667	1628895 33 24019393 24019393 60 60 1 1.2617301842183 1.2617301842183 1.2617301842183 1.5919630577675
vector 3673  Scenario2_SlowSpeed.node[260].veinsmobility  acceleration  ETV
3673	1734611 33 24019393 24019393 60 60 1 1.9227693590289 1.9227693590289 1.9227693590289 3.6970420080204
vector 3674  Scenario2_SlowSpeed.node[260].veinsmobility  co2emission  ETV
3674	1734578 33 24019393 24019393 60 60 1 3.4697538803579 3.4697538803579 3.4697538803579 12.039191990259
